1ELA.B
  -OEChem-01061012463D

 64 65  0     1  0  0  0  0  0999 V2000
   -2.1071    2.7161   -1.2886 C   0  0  0  0  0  0  0  0  0  0  0  0
   -1.6444    3.3926    0.9842 C   0  0  0  0  0  0  0  0  0  0  0  0
   -1.4024    1.5307   -1.0792 C   0  0  0  0  0  0  0  0  0  0  0  0
   -0.9397    2.2072    1.1935 C   0  0  0  0  0  0  0  0  0  0  0  0
   -2.2280    3.6471   -0.2569 C   0  0  0  0  0  0  0  0  0  0  0  0
   -0.8187    1.2762    0.1618 C   0  0  0  0  0  0  0  0  0  0  0  0
    0.1127   -0.9534   -0.5350 C   0  0  0  0  0  0  0  0  0  0  0  0
   -0.6242   -2.7757    1.8997 C   0  0  0  0  0  0  0  0  0  0  0  0
   -1.1819   -4.9578    4.6989 C   0  0  0  0  0  0  0  0  0  0  0  0
    0.6458   -3.9213   -1.4001 C   0  0  0  0  0  0  0  0  0  0  0  0
    1.6654   -2.8673   -0.9755 C   0  0  0  0  0  0  0  0  0  0  0  0
   -0.0946   -4.2319   -0.1081 C   0  0  0  0  0  0  0  0  0  0  0  0
    0.9197   -2.0575    0.0789 C   0  0  2  0  0  0  0  0  0  0  0  0
   -2.0902    6.1629   -0.3298 C   0  0  0  0  0  0  0  0  0  0  0  0
   -4.2126    5.0384    0.4358 C   0  0  0  0  0  0  0  0  0  0  0  0
   -3.7543   -4.9320    2.6212 C   0  0  0  0  0  0  0  0  0  0  0  0
   -3.3084   -6.2995    2.1005 C   0  0  0  0  0  0  0  0  0  0  0  0
   -2.8956   -3.8068    2.0362 C   0  0  0  0  0  0  0  0  0  0  0  0
   -4.1422   -7.4152    2.7129 C   0  0  0  0  0  0  0  0  0  0  0  0
   -2.9806    4.9149   -0.4808 C   0  0  0  0  0  0  0  0  0  0  0  0
   -1.4302   -3.9268    2.4465 C   0  0  2  0  0  0  0  0  0  0  0  0
   -0.9870   -4.5827    6.1385 C   0  0  0  0  0  0  0  0  0  0  0  0
   -0.0213   -2.9989    0.6716 N   0  0  0  0  0  0  0  0  0  0  0  0
   -0.1040    0.0736    0.3748 N   0  0  0  0  0  0  0  0  0  0  0  0
   -1.2447   -3.8464    3.8687 N   0  0  0  0  0  0  0  0  0  0  0  0
   -4.0185   -7.3598    4.1893 N   0  3  0  0  0  0  0  0  0  0  0  0
   -0.2655   -1.0248   -1.6998 O   0  0  0  0  0  0  0  0  0  0  0  0
   -0.5401   -1.7201    2.5295 O   0  0  0  0  0  0  0  0  0  0  0  0
   -1.2740   -6.1278    4.3383 O   0  0  0  0  0  0  0  0  0  0  0  0
   -0.9158   -3.2376    6.3063 F   0  0  0  0  0  0  0  0  0  0  0  0
    0.1562   -5.1055    6.6508 F   0  0  0  0  0  0  0  0  0  0  0  0
   -2.0045   -5.0222    6.9219 F   0  0  0  0  0  0  0  0  0  0  0  0
   -2.5564    2.9071   -2.2596 H   0  0  0  0  0  0  0  0  0  0  0  0
   -1.7328    4.1126    1.7935 H   0  0  0  0  0  0  0  0  0  0  0  0
   -1.3156    0.8122   -1.8904 H   0  0  0  0  0  0  0  0  0  0  0  0
   -0.4883    2.0195    2.1645 H   0  0  0  0  0  0  0  0  0  0  0  0
   -0.0460   -3.4971   -2.1375 H   0  0  0  0  0  0  0  0  0  0  0  0
    1.1089   -4.8077   -1.8423 H   0  0  0  0  0  0  0  0  0  0  0  0
    2.5299   -3.3642   -0.5185 H   0  0  0  0  0  0  0  0  0  0  0  0
    2.0192   -2.2693   -1.8208 H   0  0  0  0  0  0  0  0  0  0  0  0
   -1.1342   -4.5250   -0.2779 H   0  0  0  0  0  0  0  0  0  0  0  0
    0.4112   -5.0203    0.4598 H   0  0  0  0  0  0  0  0  0  0  0  0
    1.5797   -1.6306    0.8401 H   0  0  0  0  0  0  0  0  0  0  0  0
   -1.6532    6.2274    0.6726 H   0  0  0  0  0  0  0  0  0  0  0  0
   -2.6575    7.0835   -0.5048 H   0  0  0  0  0  0  0  0  0  0  0  0
   -1.2665    6.1344   -1.0518 H   0  0  0  0  0  0  0  0  0  0  0  0
   -3.9094    5.0188    1.4886 H   0  0  0  0  0  0  0  0  0  0  0  0
   -4.9164    4.2147    0.2743 H   0  0  0  0  0  0  0  0  0  0  0  0
   -4.7526    5.9755    0.2613 H   0  0  0  0  0  0  0  0  0  0  0  0
   -4.8059   -4.7650    2.3580 H   0  0  0  0  0  0  0  0  0  0  0  0
   -3.6888   -4.9210    3.7157 H   0  0  0  0  0  0  0  0  0  0  0  0
   -3.3999   -6.3242    1.0075 H   0  0  0  0  0  0  0  0  0  0  0  0
   -2.2484   -6.4548    2.3374 H   0  0  0  0  0  0  0  0  0  0  0  0
   -2.9849   -3.8103    0.9419 H   0  0  0  0  0  0  0  0  0  0  0  0
   -3.2881   -2.8400    2.3771 H   0  0  0  0  0  0  0  0  0  0  0  0
   -5.2055   -7.3081    2.4792 H   0  0  0  0  0  0  0  0  0  0  0  0
   -3.7945   -8.4048    2.4022 H   0  0  0  0  0  0  0  0  0  0  0  0
   -3.3693    4.9428   -1.5167 H   0  0  0  0  0  0  0  0  0  0  0  0
   -0.9876   -4.8642    2.0956 H   0  0  0  0  0  0  0  0  0  0  0  0
    0.2922   -0.0389    1.3057 H   0  0  0  0  0  0  0  0  0  0  0  0
   -1.1542   -2.9229    4.2917 H   0  0  0  0  0  0  0  0  0  0  0  0
   -3.8775   -8.2970    4.5821 H   0  0  0  0  0  0  0  0  0  0  0  0
   -4.8644   -6.9639    4.6141 H   0  0  0  0  0  0  0  0  0  0  0  0
   -3.2221   -6.7770    4.4700 H   0  0  0  0  0  0  0  0  0  0  0  0
  1  3  2  0  0  0  0
  1  5  1  0  0  0  0
  2  4  1  0  0  0  0
  2  5  2  0  0  0  0
  3  6  1  0  0  0  0
  4  6  2  0  0  0  0
  5 20  1  0  0  0  0
  6 24  1  0  0  0  0
  7 13  1  0  0  0  0
  7 24  1  0  0  0  0
  7 27  2  0  0  0  0
  8 21  1  0  0  0  0
  8 23  1  0  0  0  0
  8 28  2  0  0  0  0
  9 22  1  0  0  0  0
  9 25  1  0  0  0  0
  9 29  2  0  0  0  0
 10 11  1  0  0  0  0
 10 12  1  0  0  0  0
 11 13  1  0  0  0  0
 12 23  1  0  0  0  0
 13 23  1  0  0  0  0
 14 20  1  0  0  0  0
 15 20  1  0  0  0  0
 16 17  1  0  0  0  0
 16 18  1  0  0  0  0
 17 19  1  0  0  0  0
 18 21  1  0  0  0  0
 19 26  1  0  0  0  0
 21 25  1  0  0  0  0
 22 30  1  0  0  0  0
 22 31  1  0  0  0  0
 22 32  1  0  0  0  0
  1 33  1  0  0  0  0
  2 34  1  0  0  0  0
  3 35  1  0  0  0  0
  4 36  1  0  0  0  0
 10 37  1  0  0  0  0
 10 38  1  0  0  0  0
 11 39  1  0  0  0  0
 11 40  1  0  0  0  0
 12 41  1  0  0  0  0
 12 42  1  0  0  0  0
 13 43  1  0  0  0  0
 14 44  1  0  0  0  0
 14 45  1  0  0  0  0
 14 46  1  0  0  0  0
 15 47  1  0  0  0  0
 15 48  1  0  0  0  0
 15 49  1  0  0  0  0
 16 50  1  0  0  0  0
 16 51  1  0  0  0  0
 17 52  1  0  0  0  0
 17 53  1  0  0  0  0
 18 54  1  0  0  0  0
 18 55  1  0  0  0  0
 19 56  1  0  0  0  0
 19 57  1  0  0  0  0
 20 58  1  0  0  0  0
 21 59  1  0  0  0  0
 24 60  1  0  0  0  0
 25 61  1  0  0  0  0
 26 62  1  0  0  0  0
 26 63  1  0  0  0  0
 26 64  1  0  0  0  0
M  CHG  1  26   1
M  END
$$$$
1ELB.B
  -OEChem-01061012463D

 69 69  0     1  0  0  0  0  0999 V2000
   -5.3449    3.1429    0.1284 C   0  0  0  0  0  0  0  0  0  0  0  0
   -6.0805    1.4518    1.6892 C   0  0  0  0  0  0  0  0  0  0  0  0
   -4.2057    2.3886   -0.1521 C   0  0  0  0  0  0  0  0  0  0  0  0
   -4.9412    0.6973    1.4086 C   0  0  0  0  0  0  0  0  0  0  0  0
   -6.2823    2.6746    1.0491 C   0  0  0  0  0  0  0  0  0  0  0  0
   -4.0039    1.1658    0.4880 C   0  0  0  0  0  0  0  0  0  0  0  0
   -1.8168    0.7134   -0.6782 C   0  0  0  0  0  0  0  0  0  0  0  0
   -0.7866   -1.1944   -3.0350 C   0  0  0  0  0  0  0  0  0  0  0  0
   -0.0394   -2.2822   -6.5398 C   0  0  0  0  0  0  0  0  0  0  0  0
   -7.5638    3.9239    2.8241 C   0  0  0  0  0  0  0  0  0  0  0  0
   -8.8006    2.7499    0.9674 C   0  0  0  0  0  0  0  0  0  0  0  0
   -0.4094   -1.9308    1.9161 C   0  0  0  0  0  0  0  0  0  0  0  0
    1.0051   -0.0768    2.8221 C   0  0  0  0  0  0  0  0  0  0  0  0
   -1.3200    0.8987   -5.2657 C   0  0  0  0  0  0  0  0  0  0  0  0
   -1.1820    2.2994   -5.8666 C   0  0  0  0  0  0  0  0  0  0  0  0
    0.0522    0.3091   -4.9139 C   0  0  0  0  0  0  0  0  0  0  0  0
    0.3222   -0.0957    0.3631 C   0  0  0  0  0  0  0  0  0  0  0  0
   -0.4729    3.2394   -4.9028 C   0  0  0  0  0  0  0  0  0  0  0  0
   -7.4998    3.4814    1.3499 C   0  0  0  0  0  0  0  0  0  0  0  0
   -0.7530   -0.3856   -0.6923 C   0  0  2  0  0  0  0  0  0  0  0  0
   -0.0056   -1.1125   -4.3424 C   0  0  2  0  0  0  0  0  0  0  0  0
   -0.0838   -0.4383    1.8110 C   0  0  0  0  0  0  0  0  0  0  0  0
   -0.8301   -3.3006   -7.3072 C   0  0  0  0  0  0  0  0  0  0  0  0
   -2.8484    0.3998    0.2034 N   0  0  0  0  0  0  0  0  0  0  0  0
   -0.2073   -0.4362   -2.0277 N   0  0  0  0  0  0  0  0  0  0  0  0
   -0.5707   -2.0475   -5.2806 N   0  0  0  0  0  0  0  0  0  0  0  0
   -1.2336    3.2958   -3.6313 N   0  3  0  0  0  0  0  0  0  0  0  0
   -1.6995    1.7377   -1.3450 O   0  0  0  0  0  0  0  0  0  0  0  0
   -1.7963   -1.8827   -2.8994 O   0  0  0  0  0  0  0  0  0  0  0  0
    0.9559   -1.7405   -7.0124 O   0  0  0  0  0  0  0  0  0  0  0  0
   -1.8884   -3.7627   -6.5938 F   0  0  0  0  0  0  0  0  0  0  0  0
   -0.0792   -4.3802   -7.6436 F   0  0  0  0  0  0  0  0  0  0  0  0
   -1.3280   -2.7937   -8.4636 F   0  0  0  0  0  0  0  0  0  0  0  0
   -5.4926    4.0957   -0.3731 H   0  0  0  0  0  0  0  0  0  0  0  0
   -6.8050    1.0794    2.4086 H   0  0  0  0  0  0  0  0  0  0  0  0
   -3.4826    2.7633   -0.8721 H   0  0  0  0  0  0  0  0  0  0  0  0
   -4.7937   -0.2539    1.9138 H   0  0  0  0  0  0  0  0  0  0  0  0
   -7.5786    3.0642    3.5028 H   0  0  0  0  0  0  0  0  0  0  0  0
   -8.4600    4.5210    3.0247 H   0  0  0  0  0  0  0  0  0  0  0  0
   -6.6903    4.5347    3.0781 H   0  0  0  0  0  0  0  0  0  0  0  0
   -8.8865    1.8081    1.5207 H   0  0  0  0  0  0  0  0  0  0  0  0
   -8.8279    2.5141   -0.1020 H   0  0  0  0  0  0  0  0  0  0  0  0
   -9.6852    3.3540    1.1969 H   0  0  0  0  0  0  0  0  0  0  0  0
    0.4665   -2.5388    1.6658 H   0  0  0  0  0  0  0  0  0  0  0  0
   -0.7301   -2.1979    2.9289 H   0  0  0  0  0  0  0  0  0  0  0  0
   -1.2125   -2.2039    1.2234 H   0  0  0  0  0  0  0  0  0  0  0  0
    1.9389   -0.6071    2.6069 H   0  0  0  0  0  0  0  0  0  0  0  0
    0.6938   -0.3406    3.8388 H   0  0  0  0  0  0  0  0  0  0  0  0
    1.2133    0.9972    2.8176 H   0  0  0  0  0  0  0  0  0  0  0  0
   -1.8340    0.2486   -5.9832 H   0  0  0  0  0  0  0  0  0  0  0  0
   -1.9467    0.9515   -4.3677 H   0  0  0  0  0  0  0  0  0  0  0  0
   -2.1764    2.6952   -6.1078 H   0  0  0  0  0  0  0  0  0  0  0  0
   -0.6222    2.2415   -6.8085 H   0  0  0  0  0  0  0  0  0  0  0  0
    0.5417    0.9647   -4.1822 H   0  0  0  0  0  0  0  0  0  0  0  0
    0.6813    0.3156   -5.8126 H   0  0  0  0  0  0  0  0  0  0  0  0
    1.2293   -0.6614    0.1087 H   0  0  0  0  0  0  0  0  0  0  0  0
    0.6066    0.9638    0.3119 H   0  0  0  0  0  0  0  0  0  0  0  0
    0.5338    2.8898   -4.6552 H   0  0  0  0  0  0  0  0  0  0  0  0
   -0.4235    4.2618   -5.2888 H   0  0  0  0  0  0  0  0  0  0  0  0
   -7.4893    4.4135    0.7533 H   0  0  0  0  0  0  0  0  0  0  0  0
   -1.2393   -1.3499   -0.5124 H   0  0  0  0  0  0  0  0  0  0  0  0
    1.0158   -1.4620   -4.1490 H   0  0  0  0  0  0  0  0  0  0  0  0
   -0.9929    0.1174    2.0713 H   0  0  0  0  0  0  0  0  0  0  0  0
   -2.7754   -0.4791    0.7115 H   0  0  0  0  0  0  0  0  0  0  0  0
    0.6287    0.1013   -2.2370 H   0  0  0  0  0  0  0  0  0  0  0  0
   -1.4041   -2.5634   -5.0049 H   0  0  0  0  0  0  0  0  0  0  0  0
   -0.9926    4.1368   -3.0956 H   0  0  0  0  0  0  0  0  0  0  0  0
   -1.0293    2.4791   -3.0447 H   0  0  0  0  0  0  0  0  0  0  0  0
   -2.2441    3.3128   -3.8077 H   0  0  0  0  0  0  0  0  0  0  0  0
  1  3  2  0  0  0  0
  1  5  1  0  0  0  0
  2  4  1  0  0  0  0
  2  5  2  0  0  0  0
  3  6  1  0  0  0  0
  4  6  2  0  0  0  0
  5 19  1  0  0  0  0
  6 24  1  0  0  0  0
  7 20  1  0  0  0  0
  7 24  1  0  0  0  0
  7 28  2  0  0  0  0
  8 21  1  0  0  0  0
  8 25  1  0  0  0  0
  8 29  2  0  0  0  0
  9 23  1  0  0  0  0
  9 26  1  0  0  0  0
  9 30  2  0  0  0  0
 10 19  1  0  0  0  0
 11 19  1  0  0  0  0
 12 22  1  0  0  0  0
 13 22  1  0  0  0  0
 14 15  1  0  0  0  0
 14 16  1  0  0  0  0
 15 18  1  0  0  0  0
 16 21  1  0  0  0  0
 17 20  1  0  0  0  0
 17 22  1  0  0  0  0
 18 27  1  0  0  0  0
 20 25  1  0  0  0  0
 21 26  1  0  0  0  0
 23 31  1  0  0  0  0
 23 32  1  0  0  0  0
 23 33  1  0  0  0  0
  1 34  1  0  0  0  0
  2 35  1  0  0  0  0
  3 36  1  0  0  0  0
  4 37  1  0  0  0  0
 10 38  1  0  0  0  0
 10 39  1  0  0  0  0
 10 40  1  0  0  0  0
 11 41  1  0  0  0  0
 11 42  1  0  0  0  0
 11 43  1  0  0  0  0
 12 44  1  0  0  0  0
 12 45  1  0  0  0  0
 12 46  1  0  0  0  0
 13 47  1  0  0  0  0
 13 48  1  0  0  0  0
 13 49  1  0  0  0  0
 14 50  1  0  0  0  0
 14 51  1  0  0  0  0
 15 52  1  0  0  0  0
 15 53  1  0  0  0  0
 16 54  1  0  0  0  0
 16 55  1  0  0  0  0
 17 56  1  0  0  0  0
 17 57  1  0  0  0  0
 18 58  1  0  0  0  0
 18 59  1  0  0  0  0
 19 60  1  0  0  0  0
 20 61  1  0  0  0  0
 21 62  1  0  0  0  0
 22 63  1  0  0  0  0
 24 64  1  0  0  0  0
 25 65  1  0  0  0  0
 26 66  1  0  0  0  0
 27 67  1  0  0  0  0
 27 68  1  0  0  0  0
 27 69  1  0  0  0  0
M  CHG  1  27   1
M  END
$$$$
1ELC.B
  -OEChem-01061012463D

 70 71  0     1  0  0  0  0  0999 V2000
   -4.5384    0.3150    2.6607 C   0  0  0  0  0  0  0  0  0  0  0  0
   -3.7273   -0.8123    2.7912 C   0  0  0  0  0  0  0  0  0  0  0  0
   -4.5753    1.0116    1.4528 C   0  0  0  0  0  0  0  0  0  0  0  0
   -2.9531   -1.2429    1.7138 C   0  0  0  0  0  0  0  0  0  0  0  0
   -3.8011    0.5810    0.3754 C   0  0  0  0  0  0  0  0  0  0  0  0
    2.6719   -2.5217    3.5433 C   0  0  0  0  0  0  0  0  0  0  0  0
    1.6883   -0.7864    4.9066 C   0  0  0  0  0  0  0  0  0  0  0  0
    1.9061   -2.1014    2.4559 C   0  0  0  0  0  0  0  0  0  0  0  0
    0.9226   -0.3661    3.8191 C   0  0  0  0  0  0  0  0  0  0  0  0
   -2.9900   -0.5463    0.5059 C   0  0  0  0  0  0  0  0  0  0  0  0
    2.5629   -1.8642    4.7687 C   0  0  0  0  0  0  0  0  0  0  0  0
    1.0315   -1.0236    2.5937 C   0  0  0  0  0  0  0  0  0  0  0  0
    0.2231   -1.1425    0.2110 C   0  0  0  0  0  0  0  0  0  0  0  0
    0.6979    0.5068   -2.4927 C   0  0  0  0  0  0  0  0  0  0  0  0
    2.3592    1.4884   -5.7025 C   0  0  0  0  0  0  0  0  0  0  0  0
    2.5140   -2.8063    7.1062 C   0  0  0  0  0  0  0  0  0  0  0  0
    4.3556   -1.2266    6.4221 C   0  0  0  0  0  0  0  0  0  0  0  0
   -2.1522   -1.0120   -0.6596 C   0  0  0  0  0  0  0  0  0  0  0  0
    3.1212   -1.2250   -3.3705 C   0  0  0  0  0  0  0  0  0  0  0  0
    3.7887   -2.5734   -3.6510 C   0  0  0  0  0  0  0  0  0  0  0  0
    1.8040   -1.0872   -4.1452 C   0  0  0  0  0  0  0  0  0  0  0  0
    2.8703   -3.7261   -3.2729 C   0  0  0  0  0  0  0  0  0  0  0  0
    3.3808   -2.3140    5.9317 C   0  0  0  0  0  0  0  0  0  0  0  0
   -0.7530   -0.3856   -0.6923 C   0  0  2  0  0  0  0  0  0  0  0  0
    1.0975    0.2586   -3.9436 C   0  0  2  0  0  0  0  0  0  0  0  0
    3.1771    2.7310   -5.8981 C   0  0  0  0  0  0  0  0  0  0  0  0
    0.2550   -0.5967    1.4910 N   0  0  0  0  0  0  0  0  0  0  0  0
   -0.2073   -0.4362   -2.0277 N   0  0  0  0  0  0  0  0  0  0  0  0
    1.9018    1.3627   -4.3994 N   0  0  0  0  0  0  0  0  0  0  0  0
    2.5159   -3.6142   -1.8375 N   0  3  0  0  0  0  0  0  0  0  0  0
    0.8337   -2.1305   -0.1880 O   0  0  0  0  0  0  0  0  0  0  0  0
    1.1180    1.4567   -1.8350 O   0  0  0  0  0  0  0  0  0  0  0  0
    2.1469    0.6985   -6.6181 O   0  0  0  0  0  0  0  0  0  0  0  0
    3.2844    3.4522   -4.7532 F   0  0  0  0  0  0  0  0  0  0  0  0
    2.6379    3.5534   -6.8338 F   0  0  0  0  0  0  0  0  0  0  0  0
    4.4413    2.4503   -6.3047 F   0  0  0  0  0  0  0  0  0  0  0  0
   -5.1409    0.6505    3.4996 H   0  0  0  0  0  0  0  0  0  0  0  0
   -3.6985   -1.3544    3.7318 H   0  0  0  0  0  0  0  0  0  0  0  0
   -5.2062    1.8898    1.3514 H   0  0  0  0  0  0  0  0  0  0  0  0
   -2.3235   -2.1219    1.8248 H   0  0  0  0  0  0  0  0  0  0  0  0
   -3.8359    1.1300   -0.5619 H   0  0  0  0  0  0  0  0  0  0  0  0
    3.3488   -3.3640    3.4274 H   0  0  0  0  0  0  0  0  0  0  0  0
    1.5963   -0.2687    5.8578 H   0  0  0  0  0  0  0  0  0  0  0  0
    2.0001   -2.6209    1.5056 H   0  0  0  0  0  0  0  0  0  0  0  0
    0.2437    0.4746    3.9380 H   0  0  0  0  0  0  0  0  0  0  0  0
    1.8481   -2.0180    7.4739 H   0  0  0  0  0  0  0  0  0  0  0  0
    3.1311   -3.1392    7.9478 H   0  0  0  0  0  0  0  0  0  0  0  0
    1.8902   -3.6510    6.7931 H   0  0  0  0  0  0  0  0  0  0  0  0
    3.8050   -0.3323    6.7349 H   0  0  0  0  0  0  0  0  0  0  0  0
    5.0554   -0.9304    5.6331 H   0  0  0  0  0  0  0  0  0  0  0  0
    4.9466   -1.5711    7.2778 H   0  0  0  0  0  0  0  0  0  0  0  0
   -2.6914   -0.7724   -1.5863 H   0  0  0  0  0  0  0  0  0  0  0  0
   -2.0757   -2.1077   -0.6445 H   0  0  0  0  0  0  0  0  0  0  0  0
    3.8077   -0.4183   -3.6526 H   0  0  0  0  0  0  0  0  0  0  0  0
    2.9346   -1.1318   -2.2942 H   0  0  0  0  0  0  0  0  0  0  0  0
    4.7260   -2.6439   -3.0851 H   0  0  0  0  0  0  0  0  0  0  0  0
    4.0498   -2.6397   -4.7145 H   0  0  0  0  0  0  0  0  0  0  0  0
    1.1255   -1.8926   -3.8354 H   0  0  0  0  0  0  0  0  0  0  0  0
    2.0040   -1.2377   -5.2133 H   0  0  0  0  0  0  0  0  0  0  0  0
    1.9316   -3.7036   -3.8344 H   0  0  0  0  0  0  0  0  0  0  0  0
    3.3558   -4.6976   -3.4052 H   0  0  0  0  0  0  0  0  0  0  0  0
    4.0104   -3.1752    5.6372 H   0  0  0  0  0  0  0  0  0  0  0  0
   -0.7809    0.6739   -0.4139 H   0  0  0  0  0  0  0  0  0  0  0  0
    0.1865    0.2792   -4.5538 H   0  0  0  0  0  0  0  0  0  0  0  0
   -0.3567    0.1953    1.6758 H   0  0  0  0  0  0  0  0  0  0  0  0
   -0.4958   -1.1872   -2.6477 H   0  0  0  0  0  0  0  0  0  0  0  0
    2.1476    2.0892   -3.7297 H   0  0  0  0  0  0  0  0  0  0  0  0
    2.1873   -4.5133   -1.4687 H   0  0  0  0  0  0  0  0  0  0  0  0
    1.7701   -2.9239   -1.6962 H   0  0  0  0  0  0  0  0  0  0  0  0
    3.3262   -3.3218   -1.2803 H   0  0  0  0  0  0  0  0  0  0  0  0
  1  2  2  0  0  0  0
  1  3  1  0  0  0  0
  2  4  1  0  0  0  0
  3  5  2  0  0  0  0
  4 10  2  0  0  0  0
  5 10  1  0  0  0  0
  6  8  2  0  0  0  0
  6 11  1  0  0  0  0
  7  9  1  0  0  0  0
  7 11  2  0  0  0  0
  8 12  1  0  0  0  0
  9 12  2  0  0  0  0
 10 18  1  0  0  0  0
 11 23  1  0  0  0  0
 12 27  1  0  0  0  0
 13 24  1  0  0  0  0
 13 27  1  0  0  0  0
 13 31  2  0  0  0  0
 14 25  1  0  0  0  0
 14 28  1  0  0  0  0
 14 32  2  0  0  0  0
 15 26  1  0  0  0  0
 15 29  1  0  0  0  0
 15 33  2  0  0  0  0
 16 23  1  0  0  0  0
 17 23  1  0  0  0  0
 18 24  1  0  0  0  0
 19 20  1  0  0  0  0
 19 21  1  0  0  0  0
 20 22  1  0  0  0  0
 21 25  1  0  0  0  0
 22 30  1  0  0  0  0
 24 28  1  0  0  0  0
 25 29  1  0  0  0  0
 26 34  1  0  0  0  0
 26 35  1  0  0  0  0
 26 36  1  0  0  0  0
  1 37  1  0  0  0  0
  2 38  1  0  0  0  0
  3 39  1  0  0  0  0
  4 40  1  0  0  0  0
  5 41  1  0  0  0  0
  6 42  1  0  0  0  0
  7 43  1  0  0  0  0
  8 44  1  0  0  0  0
  9 45  1  0  0  0  0
 16 46  1  0  0  0  0
 16 47  1  0  0  0  0
 16 48  1  0  0  0  0
 17 49  1  0  0  0  0
 17 50  1  0  0  0  0
 17 51  1  0  0  0  0
 18 52  1  0  0  0  0
 18 53  1  0  0  0  0
 19 54  1  0  0  0  0
 19 55  1  0  0  0  0
 20 56  1  0  0  0  0
 20 57  1  0  0  0  0
 21 58  1  0  0  0  0
 21 59  1  0  0  0  0
 22 60  1  0  0  0  0
 22 61  1  0  0  0  0
 23 62  1  0  0  0  0
 24 63  1  0  0  0  0
 25 64  1  0  0  0  0
 27 65  1  0  0  0  0
 28 66  1  0  0  0  0
 29 67  1  0  0  0  0
 30 68  1  0  0  0  0
 30 69  1  0  0  0  0
 30 70  1  0  0  0  0
M  CHG  1  30   1
M  END
$$$$
1ELD.I
  -OEChem-01061012463D

 52 53  0     1  0  0  0  0  0999 V2000
    3.6683    8.3156    2.0845 C   0  0  0  0  0  0  0  0  0  0  0  0
    4.5278    7.5867    1.2625 C   0  0  0  0  0  0  0  0  0  0  0  0
    2.7101    7.6542    2.8527 C   0  0  0  0  0  0  0  0  0  0  0  0
    4.4289    6.1964    1.2086 C   0  0  0  0  0  0  0  0  0  0  0  0
    2.6112    6.2639    2.7987 C   0  0  0  0  0  0  0  0  0  0  0  0
    5.5153   -1.7851   -3.4356 C   0  0  0  0  0  0  0  0  0  0  0  0
    6.8897   -0.8723   -1.6708 C   0  0  0  0  0  0  0  0  0  0  0  0
    4.3691   -1.3694   -2.7581 C   0  0  0  0  0  0  0  0  0  0  0  0
    5.7436   -0.4565   -0.9932 C   0  0  0  0  0  0  0  0  0  0  0  0
    3.4706    5.5350    1.9767 C   0  0  0  0  0  0  0  0  0  0  0  0
    6.7756   -1.5366   -2.8920 C   0  0  0  0  0  0  0  0  0  0  0  0
    4.4832   -0.7051   -1.5369 C   0  0  0  0  0  0  0  0  0  0  0  0
    1.9947   -0.4475   -1.2411 C   0  0  0  0  0  0  0  0  0  0  0  0
    2.3058    2.0253    0.8417 C   0  0  0  0  0  0  0  0  0  0  0  0
    0.1645    4.2633   -0.0089 C   0  0  0  0  0  0  0  0  0  0  0  0
   -0.4081   -0.0305   -0.6433 C   0  0  0  0  0  0  0  0  0  0  0  0
    3.3635    4.0307    1.9181 C   0  0  0  0  0  0  0  0  0  0  0  0
    1.0388    0.1542   -0.2127 C   0  0  2  0  0  0  0  0  0  0  0  0
    2.3956    3.5471    0.8321 C   0  0  2  0  0  0  0  0  0  0  0  0
    8.0010   -1.9818   -3.6158 C   0  0  0  0  0  0  0  0  0  0  0  0
   -1.1487    4.8003    0.4791 C   0  0  0  0  0  0  0  0  0  0  0  0
    3.3207   -0.2827   -0.8492 N   0  0  0  0  0  0  0  0  0  0  0  0
    1.3584    1.5550   -0.0571 N   0  0  0  0  0  0  0  0  0  0  0  0
    1.0607    4.0543    1.0275 N   0  0  0  0  0  0  0  0  0  0  0  0
    1.5855   -1.0257   -2.2439 O   0  0  0  0  0  0  0  0  0  0  0  0
    2.9719    1.3204    1.5969 O   0  0  0  0  0  0  0  0  0  0  0  0
    0.3788    4.0514   -1.1991 O   0  0  0  0  0  0  0  0  0  0  0  0
    7.7393   -2.6185   -4.7957 F   0  0  0  0  0  0  0  0  0  0  0  0
    8.8449   -0.9588   -3.9432 F   0  0  0  0  0  0  0  0  0  0  0  0
    8.7528   -2.8572   -2.8867 F   0  0  0  0  0  0  0  0  0  0  0  0
   -1.1613    4.9598    1.8270 F   0  0  0  0  0  0  0  0  0  0  0  0
   -2.1824    3.9766    0.1694 F   0  0  0  0  0  0  0  0  0  0  0  0
   -1.4369    6.0113   -0.0618 F   0  0  0  0  0  0  0  0  0  0  0  0
    3.7450    9.3981    2.1263 H   0  0  0  0  0  0  0  0  0  0  0  0
    5.2736    8.1018    0.6644 H   0  0  0  0  0  0  0  0  0  0  0  0
    2.0404    8.2217    3.4921 H   0  0  0  0  0  0  0  0  0  0  0  0
    5.1023    5.6367    0.5647 H   0  0  0  0  0  0  0  0  0  0  0  0
    1.8614    5.7570    3.4004 H   0  0  0  0  0  0  0  0  0  0  0  0
    5.4167   -2.3043   -4.3854 H   0  0  0  0  0  0  0  0  0  0  0  0
    7.8675   -0.6752   -1.2393 H   0  0  0  0  0  0  0  0  0  0  0  0
    3.3923   -1.5677   -3.1920 H   0  0  0  0  0  0  0  0  0  0  0  0
    5.8442    0.0598   -0.0418 H   0  0  0  0  0  0  0  0  0  0  0  0
   -0.5957    0.4341   -1.6168 H   0  0  0  0  0  0  0  0  0  0  0  0
   -1.0968    0.4234    0.0785 H   0  0  0  0  0  0  0  0  0  0  0  0
   -0.6597   -1.0938   -0.7188 H   0  0  0  0  0  0  0  0  0  0  0  0
    4.3597    3.5953    1.7612 H   0  0  0  0  0  0  0  0  0  0  0  0
    3.0440    3.6701    2.9048 H   0  0  0  0  0  0  0  0  0  0  0  0
    1.2085   -0.3163    0.7621 H   0  0  0  0  0  0  0  0  0  0  0  0
    2.7144    3.8815   -0.1622 H   0  0  0  0  0  0  0  0  0  0  0  0
    3.4890    0.1943    0.0340 H   0  0  0  0  0  0  0  0  0  0  0  0
    0.8650    2.2294   -0.6346 H   0  0  0  0  0  0  0  0  0  0  0  0
    0.7607    4.2701    1.9756 H   0  0  0  0  0  0  0  0  0  0  0  0
  1  2  2  0  0  0  0
  1  3  1  0  0  0  0
  2  4  1  0  0  0  0
  3  5  2  0  0  0  0
  4 10  2  0  0  0  0
  5 10  1  0  0  0  0
  6  8  2  0  0  0  0
  6 11  1  0  0  0  0
  7  9  1  0  0  0  0
  7 11  2  0  0  0  0
  8 12  1  0  0  0  0
  9 12  2  0  0  0  0
 10 17  1  0  0  0  0
 11 20  1  0  0  0  0
 12 22  1  0  0  0  0
 13 18  1  0  0  0  0
 13 22  1  0  0  0  0
 13 25  2  0  0  0  0
 14 19  1  0  0  0  0
 14 23  1  0  0  0  0
 14 26  2  0  0  0  0
 15 21  1  0  0  0  0
 15 24  1  0  0  0  0
 15 27  2  0  0  0  0
 16 18  1  0  0  0  0
 17 19  1  0  0  0  0
 18 23  1  0  0  0  0
 19 24  1  0  0  0  0
 20 28  1  0  0  0  0
 20 29  1  0  0  0  0
 20 30  1  0  0  0  0
 21 31  1  0  0  0  0
 21 32  1  0  0  0  0
 21 33  1  0  0  0  0
  1 34  1  0  0  0  0
  2 35  1  0  0  0  0
  3 36  1  0  0  0  0
  4 37  1  0  0  0  0
  5 38  1  0  0  0  0
  6 39  1  0  0  0  0
  7 40  1  0  0  0  0
  8 41  1  0  0  0  0
  9 42  1  0  0  0  0
 16 43  1  0  0  0  0
 16 44  1  0  0  0  0
 16 45  1  0  0  0  0
 17 46  1  0  0  0  0
 17 47  1  0  0  0  0
 18 48  1  0  0  0  0
 19 49  1  0  0  0  0
 22 50  1  0  0  0  0
 23 51  1  0  0  0  0
 24 52  1  0  0  0  0
M  END
$$$$
1ELE.I
  -OEChem-01061012463D

 48 48  0     1  0  0  0  0  0999 V2000
   -0.5323    8.0133    0.5954 C   0  0  0  0  0  0  0  0  0  0  0  0
    0.3160    6.4548   -1.0442 C   0  0  0  0  0  0  0  0  0  0  0  0
   -1.3665    7.0199    1.1081 C   0  0  0  0  0  0  0  0  0  0  0  0
   -0.5182    5.4614   -0.5315 C   0  0  0  0  0  0  0  0  0  0  0  0
    0.3089    7.7308   -0.4808 C   0  0  0  0  0  0  0  0  0  0  0  0
   -1.3594    5.7439    0.5447 C   0  0  0  0  0  0  0  0  0  0  0  0
   -3.1021    4.8420    2.1246 C   0  0  0  0  0  0  0  0  0  0  0  0
   -2.2258    1.7580    1.6315 C   0  0  0  0  0  0  0  0  0  0  0  0
   -2.6282   -0.5524    3.8286 C   0  0  0  0  0  0  0  0  0  0  0  0
   -4.8047    3.6399    3.5249 C   0  0  0  0  0  0  0  0  0  0  0  0
    0.7059    1.6114    0.7908 C   0  0  0  0  0  0  0  0  0  0  0  0
    0.7997   -0.7009    1.7561 C   0  0  0  0  0  0  0  0  0  0  0  0
   -3.8244    3.5183    2.3686 C   0  0  2  0  0  0  0  0  0  0  0  0
   -1.2530    0.7219    2.1907 C   0  0  2  0  0  0  0  0  0  0  0  0
   -0.1217    0.3869    1.1956 C   0  0  0  0  0  0  0  0  0  0  0  0
    1.2001    8.7930   -1.0297 C   0  0  0  0  0  0  0  0  0  0  0  0
   -3.3481   -1.8601    3.9797 C   0  0  0  0  0  0  0  0  0  0  0  0
   -2.2053    4.7355    1.0647 N   0  0  0  0  0  0  0  0  0  0  0  0
   -2.8342    2.5002    2.6337 N   0  0  0  0  0  0  0  0  0  0  0  0
   -2.0140   -0.4342    2.5915 N   0  0  0  0  0  0  0  0  0  0  0  0
   -3.3529    5.8468    2.7841 O   0  0  0  0  0  0  0  0  0  0  0  0
   -2.4550    1.8793    0.4298 O   0  0  0  0  0  0  0  0  0  0  0  0
   -2.6082    0.2865    4.7247 O   0  0  0  0  0  0  0  0  0  0  0  0
    1.0879    9.9906   -0.3822 F   0  0  0  0  0  0  0  0  0  0  0  0
    2.5280    8.4785   -0.9682 F   0  0  0  0  0  0  0  0  0  0  0  0
    0.9484    9.0626   -2.3438 F   0  0  0  0  0  0  0  0  0  0  0  0
   -3.2347   -2.6322    2.8691 F   0  0  0  0  0  0  0  0  0  0  0  0
   -4.6753   -1.6875    4.2066 F   0  0  0  0  0  0  0  0  0  0  0  0
   -2.8651   -2.5910    5.0164 F   0  0  0  0  0  0  0  0  0  0  0  0
   -0.5463    9.0054    1.0391 H   0  0  0  0  0  0  0  0  0  0  0  0
    0.9675    6.2259   -1.8835 H   0  0  0  0  0  0  0  0  0  0  0  0
   -2.0171    7.2515    1.9477 H   0  0  0  0  0  0  0  0  0  0  0  0
   -0.5050    4.4707   -0.9788 H   0  0  0  0  0  0  0  0  0  0  0  0
   -4.2970    3.9423    4.4466 H   0  0  0  0  0  0  0  0  0  0  0  0
   -5.3059    2.6851    3.7209 H   0  0  0  0  0  0  0  0  0  0  0  0
   -5.5793    4.3819    3.3030 H   0  0  0  0  0  0  0  0  0  0  0  0
    1.1905    2.0678    1.6594 H   0  0  0  0  0  0  0  0  0  0  0  0
    1.4813    1.3544    0.0619 H   0  0  0  0  0  0  0  0  0  0  0  0
    0.0640    2.3740    0.3364 H   0  0  0  0  0  0  0  0  0  0  0  0
    1.2859   -0.3623    2.6770 H   0  0  0  0  0  0  0  0  0  0  0  0
    0.2291   -1.6049    1.9949 H   0  0  0  0  0  0  0  0  0  0  0  0
    1.5803   -0.9779    1.0399 H   0  0  0  0  0  0  0  0  0  0  0  0
   -4.3489    3.2154    1.4556 H   0  0  0  0  0  0  0  0  0  0  0  0
   -0.8233    1.1335    3.1128 H   0  0  0  0  0  0  0  0  0  0  0  0
   -0.5743   -0.0146    0.2794 H   0  0  0  0  0  0  0  0  0  0  0  0
   -2.1408    3.8330    0.5987 H   0  0  0  0  0  0  0  0  0  0  0  0
   -2.6002    2.3131    3.6041 H   0  0  0  0  0  0  0  0  0  0  0  0
   -2.1053   -1.2039    1.9320 H   0  0  0  0  0  0  0  0  0  0  0  0
  1  3  2  0  0  0  0
  1  5  1  0  0  0  0
  2  4  1  0  0  0  0
  2  5  2  0  0  0  0
  3  6  1  0  0  0  0
  4  6  2  0  0  0  0
  5 16  1  0  0  0  0
  6 18  1  0  0  0  0
  7 13  1  0  0  0  0
  7 18  1  0  0  0  0
  7 21  2  0  0  0  0
  8 14  1  0  0  0  0
  8 19  1  0  0  0  0
  8 22  2  0  0  0  0
  9 17  1  0  0  0  0
  9 20  1  0  0  0  0
  9 23  2  0  0  0  0
 10 13  1  0  0  0  0
 11 15  1  0  0  0  0
 12 15  1  0  0  0  0
 13 19  1  0  0  0  0
 14 15  1  0  0  0  0
 14 20  1  0  0  0  0
 16 24  1  0  0  0  0
 16 25  1  0  0  0  0
 16 26  1  0  0  0  0
 17 27  1  0  0  0  0
 17 28  1  0  0  0  0
 17 29  1  0  0  0  0
  1 30  1  0  0  0  0
  2 31  1  0  0  0  0
  3 32  1  0  0  0  0
  4 33  1  0  0  0  0
 10 34  1  0  0  0  0
 10 35  1  0  0  0  0
 10 36  1  0  0  0  0
 11 37  1  0  0  0  0
 11 38  1  0  0  0  0
 11 39  1  0  0  0  0
 12 40  1  0  0  0  0
 12 41  1  0  0  0  0
 12 42  1  0  0  0  0
 13 43  1  0  0  0  0
 14 44  1  0  0  0  0
 15 45  1  0  0  0  0
 18 46  1  0  0  0  0
 19 47  1  0  0  0  0
 20 48  1  0  0  0  0
M  END
$$$$
