1ELA.B
  MOE2007           3D
1ELA
 64 65  0  0  1  0  0  0  0  0999 V2000
   41.0260   23.4570   37.5520 C   0  0  0  0  0  0  0  0  0  0  0  0
   40.5080   23.4910   36.4290 O   0  0  0  0  0  0  0  0  0  0  0  0
   41.3570   24.7770   38.3540 C   0  0  0  0  0  0  0  0  0  0  0  0
   40.3210   25.6100   38.3690 F   0  0  0  0  0  0  0  0  0  0  0  0
   41.6550   24.6140   39.6510 F   0  0  0  0  0  0  0  0  0  0  0  0
   42.3640   25.4820   37.8480 F   0  0  0  0  0  0  0  0  0  0  0  0
   41.3550   22.2730   38.1070 N   0  0  0  0  0  0  0  0  0  0  0  0
   41.9330   22.2460   38.9340 H   0  0  0  0  0  0  0  0  0  0  0  0
   40.9500   20.9670   37.6240 C   0  0  2  0  0  0  0  0  0  0  0  0
   41.4510   20.7560   36.7160 H   0  0  0  0  0  0  0  0  0  0  0  0
   39.4240   20.9590   37.3850 C   0  0  0  0  0  0  0  0  0  0  0  0
   38.7000   21.3740   38.2770 O   0  0  0  0  0  0  0  0  0  0  0  0
   41.4240   19.9850   38.7160 C   0  0  0  0  0  0  0  0  0  0  0  0
   42.4280   19.7070   38.5290 H   0  0  0  0  0  0  0  0  0  0  0  0
   41.3580   20.4520   39.6640 H   0  0  0  0  0  0  0  0  0  0  0  0
   40.6820   18.6700   38.8800 C   0  0  0  0  0  0  0  0  0  0  0  0
   40.2400   18.6310   39.8420 H   0  0  0  0  0  0  0  0  0  0  0  0
   39.9270   18.5960   38.1420 H   0  0  0  0  0  0  0  0  0  0  0  0
   41.5880   17.4430   38.7380 C   0  0  0  0  0  0  0  0  0  0  0  0
   42.2580   17.5910   37.9320 H   0  0  0  0  0  0  0  0  0  0  0  0
   42.1370   17.3040   39.6330 H   0  0  0  0  0  0  0  0  0  0  0  0
   40.6760   16.2380   38.4700 C   0  0  0  0  0  0  0  0  0  0  0  0
   39.9250   16.1910   39.2150 H   0  0  0  0  0  0  0  0  0  0  0  0
   40.2230   16.3430   37.5180 H   0  0  0  0  0  0  0  0  0  0  0  0
   41.4070   14.9900   38.4870 N   0  3  0  0  0  0  0  0  0  0  0  0
   41.3270   14.5410   37.5870 H   0  0  0  0  0  0  0  0  0  0  0  0
   41.0250   14.3860   39.1990 H   0  0  0  0  0  0  0  0  0  0  0  0
   42.3790   15.1720   38.6870 H   0  0  0  0  0  0  0  0  0  0  0  0
   38.8360   20.5900   36.2350 N   0  0  0  0  0  0  0  0  0  0  0  0
   37.3820   20.3770   36.1140 C   0  0  2  0  0  0  0  0  0  0  0  0
   36.8680   21.1800   36.5750 H   0  0  0  0  0  0  0  0  0  0  0  0
   36.9250   19.0660   36.7880 C   0  0  0  0  0  0  0  0  0  0  0  0
   36.9440   17.9560   36.2220 O   0  0  0  0  0  0  0  0  0  0  0  0
   37.1460   20.4590   34.6080 C   0  0  0  0  0  0  0  0  0  0  0  0
   36.3340   19.8320   34.3430 H   0  0  0  0  0  0  0  0  0  0  0  0
   36.9220   21.4590   34.3400 H   0  0  0  0  0  0  0  0  0  0  0  0
   38.4480   19.9870   33.9860 C   0  0  0  0  0  0  0  0  0  0  0  0
   38.4270   18.9340   33.8800 H   0  0  0  0  0  0  0  0  0  0  0  0
   38.5670   20.4350   33.0340 H   0  0  0  0  0  0  0  0  0  0  0  0
   39.5430   20.4350   34.9620 C   0  0  0  0  0  0  0  0  0  0  0  0
   39.9740   21.3610   34.6820 H   0  0  0  0  0  0  0  0  0  0  0  0
   40.3060   19.7080   35.0680 H   0  0  0  0  0  0  0  0  0  0  0  0
   36.5850   19.3630   38.0670 N   0  0  0  0  0  0  0  0  0  0  0  0
   36.5900   20.3220   38.3810 H   0  0  0  0  0  0  0  0  0  0  0  0
   36.2230   18.4440   39.0040 C   0  0  0  0  0  0  0  0  0  0  0  0
   36.6700   17.1060   38.9640 C   0  0  0  0  0  0  0  0  0  0  0  0
   37.2420   16.7540   38.1220 H   0  0  0  0  0  0  0  0  0  0  0  0
   36.3750   16.2270   40.0160 C   0  0  0  0  0  0  0  0  0  0  0  0
   36.7190   15.2070   39.9780 H   0  0  0  0  0  0  0  0  0  0  0  0
   35.6300   16.6700   41.1260 C   0  0  0  0  0  0  0  0  0  0  0  0
   35.1810   17.9950   41.1620 C   0  0  0  0  0  0  0  0  0  0  0  0
   34.6100   18.3470   42.0040 H   0  0  0  0  0  0  0  0  0  0  0  0
   35.4700   18.8690   40.1080 C   0  0  0  0  0  0  0  0  0  0  0  0
   35.1050   19.8810   40.1530 H   0  0  0  0  0  0  0  0  0  0  0  0
   35.3340   15.7380   42.3120 C   0  0  0  0  0  0  0  0  0  0  0  0
   35.6070   16.2190   43.2150 H   0  0  0  0  0  0  0  0  0  0  0  0
   36.1110   14.4050   42.2320 C   0  0  0  0  0  0  0  0  0  0  0  0
   35.4260   13.5990   42.1840 H   0  0  0  0  0  0  0  0  0  0  0  0
   36.7200   14.3000   43.0920 H   0  0  0  0  0  0  0  0  0  0  0  0
   36.7200   14.4030   41.3650 H   0  0  0  0  0  0  0  0  0  0  0  0
   33.8640   15.4850   42.2850 C   0  0  0  0  0  0  0  0  0  0  0  0
   33.4350   15.9850   41.4560 H   0  0  0  0  0  0  0  0  0  0  0  0
   33.4270   15.8460   43.1800 H   0  0  0  0  0  0  0  0  0  0  0  0
   33.6860   14.4440   42.2000 H   0  0  0  0  0  0  0  0  0  0  0  0
  1  2  2  0  0  0  0
  1  3  1  0  0  0  0
  1  7  1  0  0  0  0
  3  4  1  0  0  0  0
  3  5  1  0  0  0  0
  3  6  1  0  0  0  0
  7  8  1  0  0  0  0
  7  9  1  0  0  0  0
  9 10  1  0  0  0  0
  9 11  1  0  0  0  0
  9 13  1  0  0  0  0
 11 12  2  0  0  0  0
 11 29  1  0  0  0  0
 13 14  1  0  0  0  0
 13 15  1  0  0  0  0
 13 16  1  0  0  0  0
 16 17  1  0  0  0  0
 16 18  1  0  0  0  0
 16 19  1  0  0  0  0
 19 20  1  0  0  0  0
 19 21  1  0  0  0  0
 19 22  1  0  0  0  0
 22 23  1  0  0  0  0
 22 24  1  0  0  0  0
 22 25  1  0  0  0  0
 25 26  1  0  0  0  0
 25 27  1  0  0  0  0
 25 28  1  0  0  0  0
 29 30  1  0  0  0  0
 29 40  1  0  0  0  0
 30 31  1  0  0  0  0
 30 32  1  0  0  0  0
 30 34  1  0  0  0  0
 32 33  2  0  0  0  0
 32 43  1  0  0  0  0
 34 35  1  0  0  0  0
 34 36  1  0  0  0  0
 34 37  1  0  0  0  0
 37 38  1  0  0  0  0
 37 39  1  0  0  0  0
 37 40  1  0  0  0  0
 40 41  1  0  0  0  0
 40 42  1  0  0  0  0
 43 44  1  0  0  0  0
 43 45  1  0  0  0  0
 45 46  1  0  0  0  0
 45 53  2  0  0  0  0
 46 47  1  0  0  0  0
 46 48  2  0  0  0  0
 48 49  1  0  0  0  0
 48 50  1  0  0  0  0
 50 51  2  0  0  0  0
 50 55  1  0  0  0  0
 51 52  1  0  0  0  0
 51 53  1  0  0  0  0
 53 54  1  0  0  0  0
 55 56  1  0  0  0  0
 55 57  1  0  0  0  0
 55 61  1  0  0  0  0
 57 58  1  0  0  0  0
 57 59  1  0  0  0  0
 57 60  1  0  0  0  0
 61 62  1  0  0  0  0
 61 63  1  0  0  0  0
 61 64  1  0  0  0  0
M  CHG  1  25   1
M  END
$$$$
1ELB.B
  MOE2007           3D
1ELB
 69 69  0  0  1  0  0  0  0  0999 V2000
   43.2430   20.8130   35.7810 C   0  0  0  0  0  0  0  0  0  0  0  0
   42.9160   19.9700   34.9190 O   0  0  0  0  0  0  0  0  0  0  0  0
   44.0170   22.1530   35.4510 C   0  0  0  0  0  0  0  0  0  0  0  0
   45.1660   22.3250   36.0470 F   0  0  0  0  0  0  0  0  0  0  0  0
   44.2720   22.4000   34.1770 F   0  0  0  0  0  0  0  0  0  0  0  0
   43.2920   23.1700   35.8610 F   0  0  0  0  0  0  0  0  0  0  0  0
   43.0210   20.5390   37.0880 N   0  0  0  0  0  0  0  0  0  0  0  0
   43.5220   21.0470   37.8020 H   0  0  0  0  0  0  0  0  0  0  0  0
   42.0710   19.5220   37.5040 C   0  0  2  0  0  0  0  0  0  0  0  0
   41.6660   19.0460   36.6490 H   0  0  0  0  0  0  0  0  0  0  0  0
   41.0680   20.3790   38.2630 C   0  0  0  0  0  0  0  0  0  0  0  0
   40.6360   20.0550   39.3720 O   0  0  0  0  0  0  0  0  0  0  0  0
   42.6510   18.4850   38.4550 C   0  0  0  0  0  0  0  0  0  0  0  0
   43.6840   18.6720   38.5940 H   0  0  0  0  0  0  0  0  0  0  0  0
   42.1530   18.5440   39.3880 H   0  0  0  0  0  0  0  0  0  0  0  0
   42.5070   17.0660   37.9490 C   0  0  0  0  0  0  0  0  0  0  0  0
   42.7560   17.0310   36.9200 H   0  0  0  0  0  0  0  0  0  0  0  0
   43.1570   16.4300   38.4910 H   0  0  0  0  0  0  0  0  0  0  0  0
   41.0850   16.5660   38.1210 C   0  0  0  0  0  0  0  0  0  0  0  0
   40.7520   16.7790   39.1040 H   0  0  0  0  0  0  0  0  0  0  0  0
   40.4540   17.0500   37.4220 H   0  0  0  0  0  0  0  0  0  0  0  0
   40.9930   15.0600   37.8950 C   0  0  0  0  0  0  0  0  0  0  0  0
   41.3170   14.8300   36.9130 H   0  0  0  0  0  0  0  0  0  0  0  0
   41.6090   14.5600   38.5960 H   0  0  0  0  0  0  0  0  0  0  0  0
   39.6160   14.6160   38.0630 N   0  3  0  0  0  0  0  0  0  0  0  0
   39.5700   13.9400   38.8100 H   0  0  0  0  0  0  0  0  0  0  0  0
   39.2920   14.1930   37.2060 H   0  0  0  0  0  0  0  0  0  0  0  0
   39.0330   15.4080   38.2890 H   0  0  0  0  0  0  0  0  0  0  0  0
   40.7740   21.5360   37.6300 N   0  0  0  0  0  0  0  0  0  0  0  0
   41.3090   21.8200   36.8230 H   0  0  0  0  0  0  0  0  0  0  0  0
   39.7210   22.4400   38.0200 C   0  0  2  0  0  0  0  0  0  0  0  0
   39.7060   22.5300   39.0750 H   0  0  0  0  0  0  0  0  0  0  0  0
   38.5970   21.6120   37.4000 C   0  0  0  0  0  0  0  0  0  0  0  0
   38.1980   21.7370   36.2450 O   0  0  0  0  0  0  0  0  0  0  0  0
   39.9900   23.8460   37.3760 C   0  0  0  0  0  0  0  0  0  0  0  0
   40.3150   23.7200   36.3760 H   0  0  0  0  0  0  0  0  0  0  0  0
   39.0980   24.4160   37.3880 H   0  0  0  0  0  0  0  0  0  0  0  0
   41.0470   24.8180   37.9790 C   0  0  0  0  0  0  0  0  0  0  0  0
   41.7840   25.0340   37.2500 H   0  0  0  0  0  0  0  0  0  0  0  0
   40.4420   26.1040   38.4200 C   0  0  0  0  0  0  0  0  0  0  0  0
   39.4030   26.0940   38.2150 H   0  0  0  0  0  0  0  0  0  0  0  0
   40.8970   26.9050   37.8980 H   0  0  0  0  0  0  0  0  0  0  0  0
   40.5960   26.2280   39.4600 H   0  0  0  0  0  0  0  0  0  0  0  0
   41.4680   24.4030   39.3350 C   0  0  0  0  0  0  0  0  0  0  0  0
   41.0960   25.0930   40.0470 H   0  0  0  0  0  0  0  0  0  0  0  0
   42.5260   24.3800   39.3850 H   0  0  0  0  0  0  0  0  0  0  0  0
   41.0840   23.4380   39.5440 H   0  0  0  0  0  0  0  0  0  0  0  0
   38.0840   20.8690   38.3980 N   0  0  0  0  0  0  0  0  0  0  0  0
   38.1170   21.2080   39.3480 H   0  0  0  0  0  0  0  0  0  0  0  0
   37.5150   19.6660   38.1910 C   0  0  0  0  0  0  0  0  0  0  0  0
   36.7580   19.3110   37.0790 C   0  0  0  0  0  0  0  0  0  0  0  0
   36.4550   20.0640   36.3710 H   0  0  0  0  0  0  0  0  0  0  0  0
   36.4030   17.9790   36.9000 C   0  0  0  0  0  0  0  0  0  0  0  0
   35.8260   17.6860   36.0390 H   0  0  0  0  0  0  0  0  0  0  0  0
   36.7880   17.0150   37.8280 C   0  0  0  0  0  0  0  0  0  0  0  0
   37.5130   17.3860   38.9260 C   0  0  0  0  0  0  0  0  0  0  0  0
   37.8040   16.6470   39.6540 H   0  0  0  0  0  0  0  0  0  0  0  0
   37.8690   18.6960   39.1010 C   0  0  0  0  0  0  0  0  0  0  0  0
   38.4390   18.9600   39.9760 H   0  0  0  0  0  0  0  0  0  0  0  0
   36.4800   15.5240   37.6520 C   0  0  0  0  0  0  0  0  0  0  0  0
   37.1160   14.9560   38.2800 H   0  0  0  0  0  0  0  0  0  0  0  0
   36.7070   15.1010   36.2000 C   0  0  0  0  0  0  0  0  0  0  0  0
   35.8010   14.7330   35.7940 H   0  0  0  0  0  0  0  0  0  0  0  0
   37.4440   14.3420   36.1650 H   0  0  0  0  0  0  0  0  0  0  0  0
   37.0330   15.9360   35.6360 H   0  0  0  0  0  0  0  0  0  0  0  0
   35.0970   15.2810   38.2280 C   0  0  0  0  0  0  0  0  0  0  0  0
   34.6740   16.2030   38.5320 H   0  0  0  0  0  0  0  0  0  0  0  0
   35.1710   14.6340   39.0630 H   0  0  0  0  0  0  0  0  0  0  0  0
   34.4810   14.8360   37.4910 H   0  0  0  0  0  0  0  0  0  0  0  0
  1  2  2  0  0  0  0
  1  3  1  0  0  0  0
  1  7  1  0  0  0  0
  3  4  1  0  0  0  0
  3  5  1  0  0  0  0
  3  6  1  0  0  0  0
  7  8  1  0  0  0  0
  7  9  1  0  0  0  0
  9 10  1  0  0  0  0
  9 11  1  0  0  0  0
  9 13  1  0  0  0  0
 11 12  2  0  0  0  0
 11 29  1  0  0  0  0
 13 14  1  0  0  0  0
 13 15  1  0  0  0  0
 13 16  1  0  0  0  0
 16 17  1  0  0  0  0
 16 18  1  0  0  0  0
 16 19  1  0  0  0  0
 19 20  1  0  0  0  0
 19 21  1  0  0  0  0
 19 22  1  0  0  0  0
 22 23  1  0  0  0  0
 22 24  1  0  0  0  0
 22 25  1  0  0  0  0
 25 26  1  0  0  0  0
 25 27  1  0  0  0  0
 25 28  1  0  0  0  0
 29 30  1  0  0  0  0
 29 31  1  0  0  0  0
 31 32  1  0  0  0  0
 31 33  1  0  0  0  0
 31 35  1  0  0  0  0
 33 34  2  0  0  0  0
 33 48  1  0  0  0  0
 35 36  1  0  0  0  0
 35 37  1  0  0  0  0
 35 38  1  0  0  0  0
 38 39  1  0  0  0  0
 38 40  1  0  0  0  0
 38 44  1  0  0  0  0
 40 41  1  0  0  0  0
 40 42  1  0  0  0  0
 40 43  1  0  0  0  0
 44 45  1  0  0  0  0
 44 46  1  0  0  0  0
 44 47  1  0  0  0  0
 48 49  1  0  0  0  0
 48 50  1  0  0  0  0
 50 51  1  0  0  0  0
 50 58  2  0  0  0  0
 51 52  1  0  0  0  0
 51 53  2  0  0  0  0
 53 54  1  0  0  0  0
 53 55  1  0  0  0  0
 55 56  2  0  0  0  0
 55 60  1  0  0  0  0
 56 57  1  0  0  0  0
 56 58  1  0  0  0  0
 58 59  1  0  0  0  0
 60 61  1  0  0  0  0
 60 62  1  0  0  0  0
 60 66  1  0  0  0  0
 62 63  1  0  0  0  0
 62 64  1  0  0  0  0
 62 65  1  0  0  0  0
 66 67  1  0  0  0  0
 66 68  1  0  0  0  0
 66 69  1  0  0  0  0
M  CHG  1  25   1
M  END
$$$$
1ELC.B
  MOE2007           3D
1ELC
 70 71  0  0  1  0  0  0  0  0999 V2000
   43.7480   20.6070   36.1740 C   0  0  0  0  0  0  0  0  0  0  0  0
   44.1600   19.5080   35.7490 O   0  0  0  0  0  0  0  0  0  0  0  0
   44.2860   22.0160   35.5590 C   0  0  0  0  0  0  0  0  0  0  0  0
   45.5280   22.4300   35.8680 F   0  0  0  0  0  0  0  0  0  0  0  0
   44.2940   21.9830   34.1920 F   0  0  0  0  0  0  0  0  0  0  0  0
   43.5000   23.0870   35.8650 F   0  0  0  0  0  0  0  0  0  0  0  0
   42.9250   20.5670   37.2710 N   0  0  0  0  0  0  0  0  0  0  0  0
   42.8500   21.3720   37.8750 H   0  0  0  0  0  0  0  0  0  0  0  0
   42.0800   19.4070   37.6980 C   0  0  2  0  0  0  0  0  0  0  0  0
   41.8330   18.8200   36.8520 H   0  0  0  0  0  0  0  0  0  0  0  0
   40.8700   20.1130   38.3150 C   0  0  0  0  0  0  0  0  0  0  0  0
   40.4820   20.0050   39.4690 O   0  0  0  0  0  0  0  0  0  0  0  0
   42.6210   18.4930   38.7980 C   0  0  0  0  0  0  0  0  0  0  0  0
   43.6000   18.8000   39.0620 H   0  0  0  0  0  0  0  0  0  0  0  0
   41.9910   18.5520   39.6470 H   0  0  0  0  0  0  0  0  0  0  0  0
   42.6520   17.0510   38.2720 C   0  0  0  0  0  0  0  0  0  0  0  0
   41.7080   16.8050   37.8600 H   0  0  0  0  0  0  0  0  0  0  0  0
   43.3970   16.9640   37.5240 H   0  0  0  0  0  0  0  0  0  0  0  0
   42.9650   16.0520   39.3740 C   0  0  0  0  0  0  0  0  0  0  0  0
   43.7860   16.4010   39.9440 H   0  0  0  0  0  0  0  0  0  0  0  0
   42.1200   15.9430   40.0020 H   0  0  0  0  0  0  0  0  0  0  0  0
   43.3270   14.6650   38.8220 C   0  0  0  0  0  0  0  0  0  0  0  0
   43.2690   13.9490   39.6000 H   0  0  0  0  0  0  0  0  0  0  0  0
   42.6500   14.4040   38.0510 H   0  0  0  0  0  0  0  0  0  0  0  0
   44.6730   14.6300   38.2740 N   0  3  0  0  0  0  0  0  0  0  0  0
   44.6310   14.3920   37.2940 H   0  0  0  0  0  0  0  0  0  0  0  0
   45.2180   13.9380   38.7650 H   0  0  0  0  0  0  0  0  0  0  0  0
   45.1040   15.5360   38.3820 H   0  0  0  0  0  0  0  0  0  0  0  0
   40.2220   20.7170   37.3240 N   0  0  0  0  0  0  0  0  0  0  0  0
   40.3920   20.4420   36.3680 H   0  0  0  0  0  0  0  0  0  0  0  0
   39.2540   21.7720   37.4370 C   0  0  2  0  0  0  0  0  0  0  0  0
   39.1500   22.0480   38.4540 H   0  0  0  0  0  0  0  0  0  0  0  0
   37.8330   21.4550   36.9390 C   0  0  0  0  0  0  0  0  0  0  0  0
   37.1250   20.6130   37.5320 O   0  0  0  0  0  0  0  0  0  0  0  0
   40.0230   22.8310   36.6810 C   0  0  0  0  0  0  0  0  0  0  0  0
   40.8830   22.3960   36.2410 H   0  0  0  0  0  0  0  0  0  0  0  0
   39.4080   23.2400   35.9230 H   0  0  0  0  0  0  0  0  0  0  0  0
   40.4650   23.9340   37.5560 C   0  0  0  0  0  0  0  0  0  0  0  0
   41.3640   23.7030   38.5810 C   0  0  0  0  0  0  0  0  0  0  0  0
   41.7640   22.7150   38.7340 H   0  0  0  0  0  0  0  0  0  0  0  0
   39.9360   25.1810   37.3370 C   0  0  0  0  0  0  0  0  0  0  0  0
   39.2390   25.3360   36.5310 H   0  0  0  0  0  0  0  0  0  0  0  0
   41.7430   24.7490   39.4040 C   0  0  0  0  0  0  0  0  0  0  0  0
   42.4440   24.5780   40.2040 H   0  0  0  0  0  0  0  0  0  0  0  0
   40.3110   26.2240   38.1630 C   0  0  0  0  0  0  0  0  0  0  0  0
   39.9000   27.2080   38.0090 H   0  0  0  0  0  0  0  0  0  0  0  0
   41.2070   26.0110   39.1810 C   0  0  0  0  0  0  0  0  0  0  0  0
   41.4930   26.8370   39.8100 H   0  0  0  0  0  0  0  0  0  0  0  0
   37.4970   22.3600   35.9500 N   0  0  0  0  0  0  0  0  0  0  0  0
   38.0310   23.2090   35.8400 H   0  0  0  0  0  0  0  0  0  0  0  0
   36.4970   22.2640   35.0580 C   0  0  0  0  0  0  0  0  0  0  0  0
   36.1770   21.0310   34.4850 C   0  0  0  0  0  0  0  0  0  0  0  0
   36.5920   20.1240   34.8920 H   0  0  0  0  0  0  0  0  0  0  0  0
   35.3270   20.9760   33.3940 C   0  0  0  0  0  0  0  0  0  0  0  0
   35.0860   20.0260   32.9460 H   0  0  0  0  0  0  0  0  0  0  0  0
   34.7670   22.1470   32.8540 C   0  0  0  0  0  0  0  0  0  0  0  0
   35.0690   23.3900   33.4350 C   0  0  0  0  0  0  0  0  0  0  0  0
   34.6380   24.2910   33.0330 H   0  0  0  0  0  0  0  0  0  0  0  0
   35.9290   23.4430   34.5320 C   0  0  0  0  0  0  0  0  0  0  0  0
   36.1580   24.3960   34.9780 H   0  0  0  0  0  0  0  0  0  0  0  0
   33.8650   22.0160   31.6020 C   0  0  0  0  0  0  0  0  0  0  0  0
   33.0110   21.4380   31.8410 H   0  0  0  0  0  0  0  0  0  0  0  0
   34.7000   21.3230   30.5100 C   0  0  0  0  0  0  0  0  0  0  0  0
   34.7680   21.9550   29.6630 H   0  0  0  0  0  0  0  0  0  0  0  0
   34.2350   20.4120   30.2340 H   0  0  0  0  0  0  0  0  0  0  0  0
   35.6720   21.1250   30.8810 H   0  0  0  0  0  0  0  0  0  0  0  0
   33.3040   23.3550   31.1770 C   0  0  0  0  0  0  0  0  0  0  0  0
   33.6780   24.1130   31.8150 H   0  0  0  0  0  0  0  0  0  0  0  0
   32.2470   23.3310   31.2390 H   0  0  0  0  0  0  0  0  0  0  0  0
   33.5950   23.5590   30.1790 H   0  0  0  0  0  0  0  0  0  0  0  0
  1  2  2  0  0  0  0
  1  3  1  0  0  0  0
  1  7  1  0  0  0  0
  3  4  1  0  0  0  0
  3  5  1  0  0  0  0
  3  6  1  0  0  0  0
  7  8  1  0  0  0  0
  7  9  1  0  0  0  0
  9 10  1  0  0  0  0
  9 11  1  0  0  0  0
  9 13  1  0  0  0  0
 11 12  2  0  0  0  0
 11 29  1  0  0  0  0
 13 14  1  0  0  0  0
 13 15  1  0  0  0  0
 13 16  1  0  0  0  0
 16 17  1  0  0  0  0
 16 18  1  0  0  0  0
 16 19  1  0  0  0  0
 19 20  1  0  0  0  0
 19 21  1  0  0  0  0
 19 22  1  0  0  0  0
 22 23  1  0  0  0  0
 22 24  1  0  0  0  0
 22 25  1  0  0  0  0
 25 26  1  0  0  0  0
 25 27  1  0  0  0  0
 25 28  1  0  0  0  0
 29 30  1  0  0  0  0
 29 31  1  0  0  0  0
 31 32  1  0  0  0  0
 31 33  1  0  0  0  0
 31 35  1  0  0  0  0
 33 34  2  0  0  0  0
 33 49  1  0  0  0  0
 35 36  1  0  0  0  0
 35 37  1  0  0  0  0
 35 38  1  0  0  0  0
 38 39  2  0  0  0  0
 38 41  1  0  0  0  0
 39 40  1  0  0  0  0
 39 43  1  0  0  0  0
 41 42  1  0  0  0  0
 41 45  2  0  0  0  0
 43 44  1  0  0  0  0
 43 47  2  0  0  0  0
 45 46  1  0  0  0  0
 45 47  1  0  0  0  0
 47 48  1  0  0  0  0
 49 50  1  0  0  0  0
 49 51  1  0  0  0  0
 51 52  1  0  0  0  0
 51 59  2  0  0  0  0
 52 53  1  0  0  0  0
 52 54  2  0  0  0  0
 54 55  1  0  0  0  0
 54 56  1  0  0  0  0
 56 57  2  0  0  0  0
 56 61  1  0  0  0  0
 57 58  1  0  0  0  0
 57 59  1  0  0  0  0
 59 60  1  0  0  0  0
 61 62  1  0  0  0  0
 61 63  1  0  0  0  0
 61 67  1  0  0  0  0
 63 64  1  0  0  0  0
 63 65  1  0  0  0  0
 63 66  1  0  0  0  0
 67 68  1  0  0  0  0
 67 69  1  0  0  0  0
 67 70  1  0  0  0  0
M  CHG  1  25   1
M  END
$$$$
1ELD.I
  MOE2007           3D
1ELD
 52 53  0  0  1  0  0  0  0  0999 V2000
   40.8230   23.9600   37.1560 C   0  0  0  0  0  0  0  0  0  0  0  0
   41.3370   25.0140   38.1950 C   0  0  0  0  0  0  0  0  0  0  0  0
   40.1200   24.2380   36.1840 O   0  0  0  0  0  0  0  0  0  0  0  0
   40.4280   25.9860   38.4540 F   0  0  0  0  0  0  0  0  0  0  0  0
   42.4480   25.6800   37.8160 F   0  0  0  0  0  0  0  0  0  0  0  0
   41.6020   24.4630   39.3850 F   0  0  0  0  0  0  0  0  0  0  0  0
   41.2240   23.1120   37.5640 N   0  0  0  0  0  0  0  0  0  0  0  0
   41.9670   23.1820   38.2440 H   0  0  0  0  0  0  0  0  0  0  0  0
   40.8600   21.7410   37.2930 C   0  0  2  0  0  0  0  0  0  0  0  0
   41.1700   21.4800   36.3140 H   0  0  0  0  0  0  0  0  0  0  0  0
   39.3440   21.4470   37.3750 C   0  0  0  0  0  0  0  0  0  0  0  0
   38.7240   21.6090   38.4410 O   0  0  0  0  0  0  0  0  0  0  0  0
   41.7590   21.0970   38.2970 C   0  0  0  0  0  0  0  0  0  0  0  0
   42.7460   21.0630   37.9160 H   0  0  0  0  0  0  0  0  0  0  0  0
   41.7460   21.6590   39.1940 H   0  0  0  0  0  0  0  0  0  0  0  0
   41.5200   19.6920   38.7660 C   0  0  0  0  0  0  0  0  0  0  0  0
   40.9440   18.6900   37.9500 C   0  0  0  0  0  0  0  0  0  0  0  0
   40.6090   18.9320   36.9550 H   0  0  0  0  0  0  0  0  0  0  0  0
   41.9550   19.3860   40.0510 C   0  0  0  0  0  0  0  0  0  0  0  0
   42.3860   20.1540   40.6710 H   0  0  0  0  0  0  0  0  0  0  0  0
   40.8060   17.3740   38.4340 C   0  0  0  0  0  0  0  0  0  0  0  0
   40.3620   16.6150   37.8120 H   0  0  0  0  0  0  0  0  0  0  0  0
   41.8210   18.0770   40.5130 C   0  0  0  0  0  0  0  0  0  0  0  0
   42.1600   17.8180   41.5020 H   0  0  0  0  0  0  0  0  0  0  0  0
   41.2520   17.0740   39.7240 C   0  0  0  0  0  0  0  0  0  0  0  0
   41.1570   16.0720   40.1070 H   0  0  0  0  0  0  0  0  0  0  0  0
   38.7690   21.0160   36.2330 N   0  0  0  0  0  0  0  0  0  0  0  0
   39.3350   20.8540   35.4130 H   0  0  0  0  0  0  0  0  0  0  0  0
   37.3240   20.7620   36.1100 C   0  0  2  0  0  0  0  0  0  0  0  0
   36.7860   21.5840   36.5050 H   0  0  0  0  0  0  0  0  0  0  0  0
   36.8140   19.5220   36.8380 C   0  0  0  0  0  0  0  0  0  0  0  0
   36.6510   18.4300   36.2780 O   0  0  0  0  0  0  0  0  0  0  0  0
   36.9360   20.6680   34.6240 C   0  0  0  0  0  0  0  0  0  0  0  0
   37.8020   20.7780   34.0250 H   0  0  0  0  0  0  0  0  0  0  0  0
   36.2450   21.4360   34.3900 H   0  0  0  0  0  0  0  0  0  0  0  0
   36.4930   19.7250   34.4340 H   0  0  0  0  0  0  0  0  0  0  0  0
   36.6050   19.7820   38.1400 N   0  0  0  0  0  0  0  0  0  0  0  0
   36.7600   20.7120   38.5000 H   0  0  0  0  0  0  0  0  0  0  0  0
   36.1900   18.7990   38.9530 C   0  0  0  0  0  0  0  0  0  0  0  0
   35.5690   19.1070   40.1630 C   0  0  0  0  0  0  0  0  0  0  0  0
   35.3460   20.1320   40.4080 H   0  0  0  0  0  0  0  0  0  0  0  0
   35.2350   18.1040   41.0560 C   0  0  0  0  0  0  0  0  0  0  0  0
   34.7610   18.3510   41.9910 H   0  0  0  0  0  0  0  0  0  0  0  0
   35.5080   16.7560   40.7570 C   0  0  0  0  0  0  0  0  0  0  0  0
   36.1190   16.4560   39.5320 C   0  0  0  0  0  0  0  0  0  0  0  0
   36.3290   15.4320   39.2710 H   0  0  0  0  0  0  0  0  0  0  0  0
   36.4620   17.4640   38.6400 C   0  0  0  0  0  0  0  0  0  0  0  0
   36.9380   17.2160   37.7060 H   0  0  0  0  0  0  0  0  0  0  0  0
   35.2160   15.6160   41.8170 C   0  0  0  0  0  0  0  0  0  0  0  0
   35.0710   14.3140   41.4010 F   0  0  0  0  0  0  0  0  0  0  0  0
   34.1700   15.8350   42.6430 F   0  0  0  0  0  0  0  0  0  0  0  0
   36.3110   15.6290   42.5990 F   0  0  0  0  0  0  0  0  0  0  0  0
  1  2  1  0  0  0  0
  1  3  2  0  0  0  0
  1  7  1  0  0  0  0
  2  4  1  0  0  0  0
  2  5  1  0  0  0  0
  2  6  1  0  0  0  0
  7  8  1  0  0  0  0
  7  9  1  0  0  0  0
  9 10  1  0  0  0  0
  9 11  1  0  0  0  0
  9 13  1  0  0  0  0
 11 12  2  0  0  0  0
 11 27  1  0  0  0  0
 13 14  1  0  0  0  0
 13 15  1  0  0  0  0
 13 16  1  0  0  0  0
 16 17  2  0  0  0  0
 16 19  1  0  0  0  0
 17 18  1  0  0  0  0
 17 21  1  0  0  0  0
 19 20  1  0  0  0  0
 19 23  2  0  0  0  0
 21 22  1  0  0  0  0
 21 25  2  0  0  0  0
 23 24  1  0  0  0  0
 23 25  1  0  0  0  0
 25 26  1  0  0  0  0
 27 28  1  0  0  0  0
 27 29  1  0  0  0  0
 29 30  1  0  0  0  0
 29 31  1  0  0  0  0
 29 33  1  0  0  0  0
 31 32  2  0  0  0  0
 31 37  1  0  0  0  0
 33 34  1  0  0  0  0
 33 35  1  0  0  0  0
 33 36  1  0  0  0  0
 37 38  1  0  0  0  0
 37 39  1  0  0  0  0
 39 40  1  0  0  0  0
 39 47  2  0  0  0  0
 40 41  1  0  0  0  0
 40 42  2  0  0  0  0
 42 43  1  0  0  0  0
 42 44  1  0  0  0  0
 44 45  2  0  0  0  0
 44 49  1  0  0  0  0
 45 46  1  0  0  0  0
 45 47  1  0  0  0  0
 47 48  1  0  0  0  0
 49 50  1  0  0  0  0
 49 51  1  0  0  0  0
 49 52  1  0  0  0  0
M  END
$$$$
1ELE.I
  MOE2007           3D
1ELE
 48 48  0  0  1  0  0  0  0  0999 V2000
   40.8960   23.5180   37.6640 C   0  0  0  0  0  0  0  0  0  0  0  0
   41.3390   24.7060   38.6020 C   0  0  0  0  0  0  0  0  0  0  0  0
   40.2620   23.7060   36.6070 O   0  0  0  0  0  0  0  0  0  0  0  0
   42.0000   24.3760   39.7330 F   0  0  0  0  0  0  0  0  0  0  0  0
   42.1610   25.5760   37.9840 F   0  0  0  0  0  0  0  0  0  0  0  0
   40.2640   25.4010   38.9770 F   0  0  0  0  0  0  0  0  0  0  0  0
   41.1480   22.2660   38.1120 N   0  0  0  0  0  0  0  0  0  0  0  0
   41.5600   22.1300   39.0230 H   0  0  0  0  0  0  0  0  0  0  0  0
   40.8610   21.0770   37.3560 C   0  0  2  0  0  0  0  0  0  0  0  0
   41.2380   21.1840   36.3720 H   0  0  0  0  0  0  0  0  0  0  0  0
   39.3370   20.9170   37.3380 C   0  0  0  0  0  0  0  0  0  0  0  0
   38.6550   21.2120   38.3230 O   0  0  0  0  0  0  0  0  0  0  0  0
   41.7350   19.9650   38.0750 C   0  0  0  0  0  0  0  0  0  0  0  0
   42.6640   20.3810   38.3680 H   0  0  0  0  0  0  0  0  0  0  0  0
   41.0710   19.4100   39.3050 C   0  0  0  0  0  0  0  0  0  0  0  0
   40.1420   19.8960   39.4540 H   0  0  0  0  0  0  0  0  0  0  0  0
   41.6930   19.5730   40.1460 H   0  0  0  0  0  0  0  0  0  0  0  0
   40.9100   18.3710   39.1810 H   0  0  0  0  0  0  0  0  0  0  0  0
   42.0470   18.8700   37.0770 C   0  0  0  0  0  0  0  0  0  0  0  0
   41.6850   17.9450   37.4440 H   0  0  0  0  0  0  0  0  0  0  0  0
   43.0950   18.8090   36.9360 H   0  0  0  0  0  0  0  0  0  0  0  0
   41.5790   19.0910   36.1530 H   0  0  0  0  0  0  0  0  0  0  0  0
   38.7820   20.6140   36.1450 N   0  0  0  0  0  0  0  0  0  0  0  0
   39.3630   20.5340   35.3240 H   0  0  0  0  0  0  0  0  0  0  0  0
   37.3380   20.3990   36.0270 C   0  0  2  0  0  0  0  0  0  0  0  0
   36.8230   21.1750   36.5320 H   0  0  0  0  0  0  0  0  0  0  0  0
   37.0720   19.0450   36.6720 C   0  0  0  0  0  0  0  0  0  0  0  0
   37.5460   17.9930   36.2120 O   0  0  0  0  0  0  0  0  0  0  0  0
   36.8570   20.3270   34.5730 C   0  0  0  0  0  0  0  0  0  0  0  0
   37.6760   20.4910   33.9220 H   0  0  0  0  0  0  0  0  0  0  0  0
   36.1200   21.0700   34.4080 H   0  0  0  0  0  0  0  0  0  0  0  0
   36.4420   19.3710   34.3850 H   0  0  0  0  0  0  0  0  0  0  0  0
   36.3810   19.2660   37.8120 N   0  0  0  0  0  0  0  0  0  0  0  0
   36.0870   20.2010   38.0510 H   0  0  0  0  0  0  0  0  0  0  0  0
   36.0410   18.2910   38.6900 C   0  0  0  0  0  0  0  0  0  0  0  0
   35.4220   18.6870   39.8600 C   0  0  0  0  0  0  0  0  0  0  0  0
   35.1950   19.7270   40.0240 H   0  0  0  0  0  0  0  0  0  0  0  0
   35.0920   17.7700   40.8180 C   0  0  0  0  0  0  0  0  0  0  0  0
   34.6080   18.0900   41.7250 H   0  0  0  0  0  0  0  0  0  0  0  0
   35.3790   16.4190   40.6280 C   0  0  0  0  0  0  0  0  0  0  0  0
   35.9920   16.0200   39.4420 C   0  0  0  0  0  0  0  0  0  0  0  0
   36.2120   14.9790   39.2730 H   0  0  0  0  0  0  0  0  0  0  0  0
   36.3190   16.9430   38.4850 C   0  0  0  0  0  0  0  0  0  0  0  0
   36.7920   16.6240   37.5720 H   0  0  0  0  0  0  0  0  0  0  0  0
   35.0720   15.3690   41.7670 C   0  0  0  0  0  0  0  0  0  0  0  0
   35.4560   14.0580   41.5980 F   0  0  0  0  0  0  0  0  0  0  0  0
   35.6810   15.7670   42.8840 F   0  0  0  0  0  0  0  0  0  0  0  0
   33.7670   15.3560   42.0650 F   0  0  0  0  0  0  0  0  0  0  0  0
  1  2  1  0  0  0  0
  1  3  2  0  0  0  0
  1  7  1  0  0  0  0
  2  4  1  0  0  0  0
  2  5  1  0  0  0  0
  2  6  1  0  0  0  0
  7  8  1  0  0  0  0
  7  9  1  0  0  0  0
  9 10  1  0  0  0  0
  9 11  1  0  0  0  0
  9 13  1  0  0  0  0
 11 12  2  0  0  0  0
 11 23  1  0  0  0  0
 13 14  1  0  0  0  0
 13 15  1  0  0  0  0
 13 19  1  0  0  0  0
 15 16  1  0  0  0  0
 15 17  1  0  0  0  0
 15 18  1  0  0  0  0
 19 20  1  0  0  0  0
 19 21  1  0  0  0  0
 19 22  1  0  0  0  0
 23 24  1  0  0  0  0
 23 25  1  0  0  0  0
 25 26  1  0  0  0  0
 25 27  1  0  0  0  0
 25 29  1  0  0  0  0
 27 28  2  0  0  0  0
 27 33  1  0  0  0  0
 29 30  1  0  0  0  0
 29 31  1  0  0  0  0
 29 32  1  0  0  0  0
 33 34  1  0  0  0  0
 33 35  1  0  0  0  0
 35 36  1  0  0  0  0
 35 43  2  0  0  0  0
 36 37  1  0  0  0  0
 36 38  2  0  0  0  0
 38 39  1  0  0  0  0
 38 40  1  0  0  0  0
 40 41  2  0  0  0  0
 40 45  1  0  0  0  0
 41 42  1  0  0  0  0
 41 43  1  0  0  0  0
 43 44  1  0  0  0  0
 45 46  1  0  0  0  0
 45 47  1  0  0  0  0
 45 48  1  0  0  0  0
M  END
$$$$
