1AQ1
  MOE2007           3D
1AQ1
 62 69  0  0  1  0  0  0  0  0999 V2000
   -0.0580   24.6050    8.9150 O   0  0  0  0  0  0  0  0  0  0  0  0
    1.3300   24.6420    8.6200 C   0  0  3  0  0  0  0  0  0  0  0  0
    1.5320   24.0110    7.7940 H   0  0  0  0  0  0  0  0  0  0  0  0
    2.1900   24.1630    9.8170 C   0  0  0  0  0  0  0  0  0  0  0  0
    2.7150   23.2840    9.5450 H   0  0  0  0  0  0  0  0  0  0  0  0
    2.8820   24.9200   10.0800 H   0  0  0  0  0  0  0  0  0  0  0  0
    1.2850   23.8640   11.0150 C   0  0  3  0  0  0  0  0  0  0  0  0
    0.6660   23.0340   10.7910 H   0  0  0  0  0  0  0  0  0  0  0  0
    0.3990   25.1070   11.3170 C   0  0  3  0  0  0  0  0  0  0  0  0
   -0.1120   24.9620   12.2330 H   0  0  0  0  0  0  0  0  0  0  0  0
   -0.5830   25.1790   10.1000 C   0  0  3  0  0  0  0  0  0  0  0  0
   -1.7820   24.3150   10.4450 C   0  0  0  0  0  0  0  0  0  0  0  0
   -1.6420   23.8820   11.4010 H   0  0  0  0  0  0  0  0  0  0  0  0
   -1.8840   23.5480    9.7220 H   0  0  0  0  0  0  0  0  0  0  0  0
   -2.6570   24.9120   10.4530 H   0  0  0  0  0  0  0  0  0  0  0  0
   -1.0180   26.5730    9.8090 N   0  0  0  0  0  0  0  0  0  0  0  0
   -0.2490   27.3530    8.9070 C   0  0  0  0  0  0  0  0  0  0  0  0
    0.8600   27.1010    8.2060 C   0  0  0  0  0  0  0  0  0  0  0  0
    1.4780   28.0810    7.3700 C   0  0  0  0  0  0  0  0  0  0  0  0
    0.7740   29.3740    7.3290 C   0  0  0  0  0  0  0  0  0  0  0  0
   -0.3120   29.6130    8.0170 C   0  0  0  0  0  0  0  0  0  0  0  0
   -0.9010   28.6450    8.8630 C   0  0  0  0  0  0  0  0  0  0  0  0
   -2.0370   28.5990    9.7020 C   0  0  0  0  0  0  0  0  0  0  0  0
   -2.1080   27.3050   10.3030 C   0  0  0  0  0  0  0  0  0  0  0  0
   -3.1120   27.0110   11.1730 C   0  0  0  0  0  0  0  0  0  0  0  0
   -3.1590   26.0380   11.6320 H   0  0  0  0  0  0  0  0  0  0  0  0
   -4.0610   27.9440   11.4680 C   0  0  0  0  0  0  0  0  0  0  0  0
   -4.8630   27.7010   12.1440 H   0  0  0  0  0  0  0  0  0  0  0  0
   -4.0150   29.2500   10.8950 C   0  0  0  0  0  0  0  0  0  0  0  0
   -4.7710   29.9750   11.1450 H   0  0  0  0  0  0  0  0  0  0  0  0
   -2.9870   29.5370   10.0290 C   0  0  0  0  0  0  0  0  0  0  0  0
   -2.9370   30.5250    9.6040 H   0  0  0  0  0  0  0  0  0  0  0  0
   -0.7870   31.0610    7.7940 C   0  0  0  0  0  0  0  0  0  0  0  0
   -1.7650   31.0530    7.3870 H   0  0  0  0  0  0  0  0  0  0  0  0
   -0.7940   31.5770    8.7190 H   0  0  0  0  0  0  0  0  0  0  0  0
    0.2460   31.4880    6.8730 N   0  0  0  0  0  0  0  0  0  0  0  0
    0.2320   32.4250    6.4980 H   0  0  0  0  0  0  0  0  0  0  0  0
    1.1910   30.5900    6.5600 C   0  0  0  0  0  0  0  0  0  0  0  0
    2.1450   30.7330    5.8200 O   0  0  0  0  0  0  0  0  0  0  0  0
    2.6460   27.5280    6.8110 C   0  0  0  0  0  0  0  0  0  0  0  0
    2.7410   26.1970    7.3090 C   0  0  0  0  0  0  0  0  0  0  0  0
    3.7550   25.3170    6.9230 C   0  0  0  0  0  0  0  0  0  0  0  0
    3.7720   24.3120    7.3090 H   0  0  0  0  0  0  0  0  0  0  0  0
    4.7040   25.7920    6.0470 C   0  0  0  0  0  0  0  0  0  0  0  0
    5.5120   25.1540    5.7310 H   0  0  0  0  0  0  0  0  0  0  0  0
    4.6280   27.1160    5.5550 C   0  0  0  0  0  0  0  0  0  0  0  0
    5.3820   27.4840    4.8800 H   0  0  0  0  0  0  0  0  0  0  0  0
    3.6100   27.9460    5.9210 C   0  0  0  0  0  0  0  0  0  0  0  0
    3.5650   28.9390    5.5060 H   0  0  0  0  0  0  0  0  0  0  0  0
    1.7090   25.9710    8.1520 N   0  0  0  0  0  0  0  0  0  0  0  0
    1.2830   26.2450   11.2960 O   0  0  0  0  0  0  0  0  0  0  0  0
    0.7080   27.3650   11.9400 C   0  0  0  0  0  0  0  0  0  0  0  0
    1.3200   27.6570   12.7530 H   0  0  0  0  0  0  0  0  0  0  0  0
   -0.2560   27.1100   12.2970 H   0  0  0  0  0  0  0  0  0  0  0  0
    0.6290   28.1660   11.2520 H   0  0  0  0  0  0  0  0  0  0  0  0
    2.1900   23.5100   12.2490 N   0  3  0  0  0  0  0  0  0  0  0  0
    3.1300   23.8370   12.0820 H   0  0  0  0  0  0  0  0  0  0  0  0
    1.8210   23.9560   13.0760 H   0  0  0  0  0  0  0  0  0  0  0  0
    2.2190   22.0360   12.4640 C   0  0  0  0  0  0  0  0  0  0  0  0
    1.8380   21.8120   13.4260 H   0  0  0  0  0  0  0  0  0  0  0  0
    3.2160   21.6880   12.3890 H   0  0  0  0  0  0  0  0  0  0  0  0
    1.6230   21.5600   11.7290 H   0  0  0  0  0  0  0  0  0  0  0  0
  1  2  1  0  0  0  0
  1 11  1  0  0  0  0
  2  3  1  0  0  0  0
  2  4  1  0  0  0  0
  2 50  1  0  0  0  0
  4  5  1  0  0  0  0
  4  6  1  0  0  0  0
  4  7  1  0  0  0  0
  7  8  1  0  0  0  0
  7  9  1  0  0  0  0
  7 56  1  0  0  0  0
  9 10  1  0  0  0  0
  9 11  1  0  0  0  0
  9 51  1  0  0  0  0
 11 12  1  0  0  0  0
 11 16  1  0  0  0  0
 12 13  1  0  0  0  0
 12 14  1  0  0  0  0
 12 15  1  0  0  0  0
 16 17  1  0  0  0  0
 16 24  1  0  0  0  0
 17 18  2  0  0  0  0
 17 22  1  0  0  0  0
 18 19  1  0  0  0  0
 18 50  1  0  0  0  0
 19 20  2  0  0  0  0
 19 40  1  0  0  0  0
 20 21  1  0  0  0  0
 20 38  1  0  0  0  0
 21 22  2  0  0  0  0
 21 33  1  0  0  0  0
 22 23  1  0  0  0  0
 23 24  1  0  0  0  0
 23 31  2  0  0  0  0
 24 25  2  0  0  0  0
 25 26  1  0  0  0  0
 25 27  1  0  0  0  0
 27 28  1  0  0  0  0
 27 29  2  0  0  0  0
 29 30  1  0  0  0  0
 29 31  1  0  0  0  0
 31 32  1  0  0  0  0
 33 34  1  0  0  0  0
 33 35  1  0  0  0  0
 33 36  1  0  0  0  0
 36 37  1  0  0  0  0
 36 38  1  0  0  0  0
 38 39  2  0  0  0  0
 40 41  1  0  0  0  0
 40 48  2  0  0  0  0
 41 42  2  0  0  0  0
 41 50  1  0  0  0  0
 42 43  1  0  0  0  0
 42 44  1  0  0  0  0
 44 45  1  0  0  0  0
 44 46  2  0  0  0  0
 46 47  1  0  0  0  0
 46 48  1  0  0  0  0
 48 49  1  0  0  0  0
 51 52  1  0  0  0  0
 52 53  1  0  0  0  0
 52 54  1  0  0  0  0
 52 55  1  0  0  0  0
 56 57  1  0  0  0  0
 56 58  1  0  0  0  0
 56 59  1  0  0  0  0
 59 60  1  0  0  0  0
 59 61  1  0  0  0  0
 59 62  1  0  0  0  0
M  CHG  1  56   1
M  END
$$$$
1DM2
  MOE2007           3D
1DM2
 29 31  0  0  1  0  0  0  0  0999 V2000
    3.6500   26.2700    7.8300 Br  0  0  0  0  0  0  0  0  0  0  0  0
    1.6650   30.7200    5.6080 O   0  0  0  0  0  0  0  0  0  0  0  0
   -3.7600   29.4750   10.3770 O   0  0  0  0  0  0  0  0  0  0  0  0
    2.2630   28.5660    7.1330 N   0  0  0  0  0  0  0  0  0  0  0  0
    3.0730   28.7700    6.5670 H   0  0  0  0  0  0  0  0  0  0  0  0
    0.0960   31.5030    7.0810 N   0  0  0  0  0  0  0  0  0  0  0  0
    0.0050   32.3800    6.5900 H   0  0  0  0  0  0  0  0  0  0  0  0
   -3.1170   27.6280   11.5880 N   0  0  0  0  0  0  0  0  0  0  0  0
   -1.2020   27.1360   10.5240 N   0  0  0  0  0  0  0  0  0  0  0  0
   -1.8380   25.7840   12.3050 N   0  0  0  0  0  0  0  0  0  0  0  0
   -1.0140   25.2150   12.1770 H   0  0  0  0  0  0  0  0  0  0  0  0
   -2.4940   25.5640   13.0390 H   0  0  0  0  0  0  0  0  0  0  0  0
    2.2190   27.4440    7.8550 C   0  0  0  0  0  0  0  0  0  0  0  0
    1.0450   27.3460    8.5430 C   0  0  0  0  0  0  0  0  0  0  0  0
    0.8560   26.4880    9.1660 H   0  0  0  0  0  0  0  0  0  0  0  0
    0.3020   28.5160    8.2300 C   0  0  0  0  0  0  0  0  0  0  0  0
    1.1190   29.2570    7.3230 C   0  0  0  0  0  0  0  0  0  0  0  0
    0.9750   30.5400    6.6200 C   0  0  0  0  0  0  0  0  0  0  0  0
   -0.7890   31.4460    8.2570 C   0  0  0  0  0  0  0  0  0  0  0  0
   -0.2030   31.4020    9.1380 H   0  0  0  0  0  0  0  0  0  0  0  0
   -1.3990   32.3110    8.2820 H   0  0  0  0  0  0  0  0  0  0  0  0
   -1.7100   30.2380    8.2600 C   0  0  0  0  0  0  0  0  0  0  0  0
   -2.5630   30.4460    8.8530 H   0  0  0  0  0  0  0  0  0  0  0  0
   -2.0130   30.0230    7.2680 H   0  0  0  0  0  0  0  0  0  0  0  0
   -1.0480   28.9840    8.8240 C   0  0  3  0  0  0  0  0  0  0  0  0
   -1.7720   28.2220    8.6980 H   0  0  0  0  0  0  0  0  0  0  0  0
   -1.6630   28.2900    9.8720 C   0  0  0  0  0  0  0  0  0  0  0  0
   -2.9620   28.5540   10.6130 C   0  0  0  0  0  0  0  0  0  0  0  0
   -2.0570   26.8150   11.5130 C   0  0  0  0  0  0  0  0  0  0  0  0
  1 13  1  0  0  0  0
  2 18  2  0  0  0  0
  3 28  2  0  0  0  0
  4  5  1  0  0  0  0
  4 13  1  0  0  0  0
  4 17  1  0  0  0  0
  6  7  1  0  0  0  0
  6 18  1  0  0  0  0
  6 19  1  0  0  0  0
  8 28  1  0  0  0  0
  8 29  2  0  0  0  0
  9 27  2  0  0  0  0
  9 29  1  0  0  0  0
 10 11  1  0  0  0  0
 10 12  1  0  0  0  0
 10 29  1  0  0  0  0
 13 14  2  0  0  0  0
 14 15  1  0  0  0  0
 14 16  1  0  0  0  0
 16 17  2  0  0  0  0
 16 25  1  0  0  0  0
 17 18  1  0  0  0  0
 19 20  1  0  0  0  0
 19 21  1  0  0  0  0
 19 22  1  0  0  0  0
 22 23  1  0  0  0  0
 22 24  1  0  0  0  0
 22 25  1  0  0  0  0
 25 26  1  0  0  0  0
 25 27  1  0  0  0  0
 27 28  1  0  0  0  0
M  END
$$$$
1E9H
  MOE2007           3D
1E9H
 33 36  0  0  0  0  0  0  0  0999 V2000
    3.5160   26.9750    7.0520 C   0  0  0  0  0  0  0  0  0  0  0  0
    2.9740   26.1390    8.0440 C   0  0  0  0  0  0  0  0  0  0  0  0
    3.5730   24.8990    8.3990 C   0  0  0  0  0  0  0  0  0  0  0  0
    3.1310   24.2880    9.1680 H   0  0  0  0  0  0  0  0  0  0  0  0
    4.7590   24.5210    7.7000 C   0  0  0  0  0  0  0  0  0  0  0  0
    5.2480   23.5900    7.9330 H   0  0  0  0  0  0  0  0  0  0  0  0
    5.3140   25.3700    6.6840 C   0  0  0  0  0  0  0  0  0  0  0  0
    6.2100   25.0730    6.1640 H   0  0  0  0  0  0  0  0  0  0  0  0
    4.6940   26.6140    6.3460 C   0  0  0  0  0  0  0  0  0  0  0  0
    5.0890   27.2680    5.5870 H   0  0  0  0  0  0  0  0  0  0  0  0
    1.7650   26.8980    8.5050 C   0  0  0  0  0  0  0  0  0  0  0  0
    1.0060   26.5200    9.3730 O   0  0  0  0  0  0  0  0  0  0  0  0
    1.7350   28.1460    7.7130 C   0  0  0  0  0  0  0  0  0  0  0  0
    0.8890   29.2160    7.6860 C   0  0  0  0  0  0  0  0  0  0  0  0
    1.0450   30.3900    6.7960 C   0  0  0  0  0  0  0  0  0  0  0  0
    1.9450   30.5120    5.9660 O   0  0  0  0  0  0  0  0  0  0  0  0
    0.0940   31.2430    7.0310 N   0  0  0  0  0  0  0  0  0  0  0  0
    0.0460   32.1020    6.5050 H   0  0  0  0  0  0  0  0  0  0  0  0
    2.7740   28.0800    6.9050 N   0  0  0  0  0  0  0  0  0  0  0  0
    3.0320   28.7730    6.2190 H   0  0  0  0  0  0  0  0  0  0  0  0
   -0.3560   29.5700    8.4990 C   0  0  0  0  0  0  0  0  0  0  0  0
   -1.1230   28.9660    9.5370 C   0  0  0  0  0  0  0  0  0  0  0  0
   -0.8420   28.0000    9.9220 H   0  0  0  0  0  0  0  0  0  0  0  0
   -2.2630   29.6680   10.0470 C   0  0  0  0  0  0  0  0  0  0  0  0
   -2.6230   30.9410    9.5300 C   0  0  0  0  0  0  0  0  0  0  0  0
   -3.4790   31.4600    9.9260 H   0  0  0  0  0  0  0  0  0  0  0  0
   -1.8570   31.5350    8.4900 C   0  0  0  0  0  0  0  0  0  0  0  0
   -2.1370   32.4980    8.0970 H   0  0  0  0  0  0  0  0  0  0  0  0
   -0.7320   30.8300    7.9960 C   0  0  0  0  0  0  0  0  0  0  0  0
   -3.1890   28.8880   11.3430 S   0  0  0  0  0  0  0  0  0  0  0  0
   -4.2640   29.8590   11.6720 O   0  0  0  0  0  0  0  0  0  0  0  0
   -2.3330   28.7130   12.4950 O   0  0  0  0  0  0  0  0  0  0  0  0
   -3.8320   27.7300   10.7560 O   0  5  0  0  0  0  0  0  0  0  0  0
  1  2  1  0  0  0  0
  1  9  2  0  0  0  0
  1 19  1  0  0  0  0
  2  3  2  0  0  0  0
  2 11  1  0  0  0  0
  3  4  1  0  0  0  0
  3  5  1  0  0  0  0
  5  6  1  0  0  0  0
  5  7  2  0  0  0  0
  7  8  1  0  0  0  0
  7  9  1  0  0  0  0
  9 10  1  0  0  0  0
 11 12  2  0  0  0  0
 11 13  1  0  0  0  0
 13 14  2  0  0  0  0
 13 19  1  0  0  0  0
 14 15  1  0  0  0  0
 14 21  1  0  0  0  0
 15 16  2  0  0  0  0
 15 17  1  0  0  0  0
 17 18  1  0  0  0  0
 17 29  1  0  0  0  0
 19 20  1  0  0  0  0
 21 22  1  0  0  0  0
 21 29  2  0  0  0  0
 22 23  1  0  0  0  0
 22 24  2  0  0  0  0
 24 25  1  0  0  0  0
 24 30  1  0  0  0  0
 25 26  1  0  0  0  0
 25 27  2  0  0  0  0
 27 28  1  0  0  0  0
 27 29  1  0  0  0  0
 30 31  2  0  0  0  0
 30 32  2  0  0  0  0
 30 33  1  0  0  0  0
M  CHG  1  33  -1
M  END
$$$$
1GIH
  MOE2007           3D
1GIH
 39 42  0  0  1  0  0  0  0  0999 V2000
   -0.8550   28.5710    9.2260 C   0  0  0  0  0  0  0  0  0  0  0  0
   -0.6860   27.1250    9.6570 C   0  0  3  0  0  0  0  0  0  0  0  0
   -0.4250   26.5350    8.8170 H   0  0  0  0  0  0  0  0  0  0  0  0
   -2.0820   29.0390    9.7870 C   0  0  0  0  0  0  0  0  0  0  0  0
   -2.7090   27.9690   10.5580 C   0  0  0  0  0  0  0  0  0  0  0  0
    0.3760   26.7860   10.7140 C   0  0  0  0  0  0  0  0  0  0  0  0
    1.2760   26.5040   10.2320 H   0  0  0  0  0  0  0  0  0  0  0  0
    0.5520   27.6350   11.3220 H   0  0  0  0  0  0  0  0  0  0  0  0
   -0.0600   29.4240    8.4270 C   0  0  0  0  0  0  0  0  0  0  0  0
   -1.8880   26.9030   10.4570 N   0  0  0  0  0  0  0  0  0  0  0  0
   -2.5200   30.3570    9.5670 C   0  0  0  0  0  0  0  0  0  0  0  0
   -3.4460   30.6960    9.9990 H   0  0  0  0  0  0  0  0  0  0  0  0
   -0.5250   30.7400    8.2260 C   0  0  0  0  0  0  0  0  0  0  0  0
    0.0490   31.4280    7.6290 H   0  0  0  0  0  0  0  0  0  0  0  0
    1.1740   28.9180    7.8610 N   0  0  0  0  0  0  0  0  0  0  0  0
    1.4700   27.9740    8.0580 H   0  0  0  0  0  0  0  0  0  0  0  0
   -1.7620   25.8890   11.5130 C   0  0  0  0  0  0  0  0  0  0  0  0
   -2.1110   26.2880   12.4300 H   0  0  0  0  0  0  0  0  0  0  0  0
   -2.3380   25.0380   11.2560 H   0  0  0  0  0  0  0  0  0  0  0  0
   -0.2500   25.6210   11.5060 C   0  0  0  0  0  0  0  0  0  0  0  0
   -0.0230   24.7050   11.0250 H   0  0  0  0  0  0  0  0  0  0  0  0
    0.1440   25.6100   12.4890 H   0  0  0  0  0  0  0  0  0  0  0  0
   -3.7570   28.0510   11.1540 O   0  0  0  0  0  0  0  0  0  0  0  0
   -1.7310   31.1920    8.7870 C   0  0  0  0  0  0  0  0  0  0  0  0
   -2.0400   32.2070    8.6020 H   0  0  0  0  0  0  0  0  0  0  0  0
    2.0920   29.4490    7.0730 C   0  0  0  0  0  0  0  0  0  0  0  0
    3.0850   28.6540    6.6990 N   0  0  0  0  0  0  0  0  0  0  0  0
    3.7390   28.9610    5.9940 H   0  0  0  0  0  0  0  0  0  0  0  0
    2.0290   30.6300    6.7170 O   0  0  0  0  0  0  0  0  0  0  0  0
    3.4850   27.3480    7.0930 C   0  0  0  0  0  0  0  0  0  0  0  0
    4.4320   26.5860    6.4090 C   0  0  0  0  0  0  0  0  0  0  0  0
    4.9120   26.9850    5.5310 H   0  0  0  0  0  0  0  0  0  0  0  0
    2.8900   26.8640    8.1840 N   0  0  0  0  0  0  0  0  0  0  0  0
    4.7310   25.2970    6.9030 C   0  0  0  0  0  0  0  0  0  0  0  0
    5.4560   24.6810    6.3980 H   0  0  0  0  0  0  0  0  0  0  0  0
    3.1540   25.6540    8.6730 C   0  0  0  0  0  0  0  0  0  0  0  0
    2.6480   25.3090    9.5580 H   0  0  0  0  0  0  0  0  0  0  0  0
    4.0840   24.8200    8.0510 C   0  0  0  0  0  0  0  0  0  0  0  0
    4.3100   23.8370    8.4270 H   0  0  0  0  0  0  0  0  0  0  0  0
  1  2  1  0  0  0  0
  1  4  2  0  0  0  0
  1  9  1  0  0  0  0
  2  3  1  0  0  0  0
  2  6  1  0  0  0  0
  2 10  1  0  0  0  0
  4  5  1  0  0  0  0
  4 11  1  0  0  0  0
  5 10  1  0  0  0  0
  5 23  2  0  0  0  0
  6  7  1  0  0  0  0
  6  8  1  0  0  0  0
  6 20  1  0  0  0  0
  9 13  2  0  0  0  0
  9 15  1  0  0  0  0
 10 17  1  0  0  0  0
 11 12  1  0  0  0  0
 11 24  2  0  0  0  0
 13 14  1  0  0  0  0
 13 24  1  0  0  0  0
 15 16  1  0  0  0  0
 15 26  1  0  0  0  0
 17 18  1  0  0  0  0
 17 19  1  0  0  0  0
 17 20  1  0  0  0  0
 20 21  1  0  0  0  0
 20 22  1  0  0  0  0
 24 25  1  0  0  0  0
 26 27  1  0  0  0  0
 26 29  2  0  0  0  0
 27 28  1  0  0  0  0
 27 30  1  0  0  0  0
 30 31  2  0  0  0  0
 30 33  1  0  0  0  0
 31 32  1  0  0  0  0
 31 34  1  0  0  0  0
 33 36  2  0  0  0  0
 34 35  1  0  0  0  0
 34 38  2  0  0  0  0
 36 37  1  0  0  0  0
 36 38  1  0  0  0  0
 38 39  1  0  0  0  0
M  END
$$$$
1KE7
  MOE2007           3D
1KE7
 43 47  0  0  0  0  0  0  0  0999 V2000
    1.7590   31.1240    6.5110 O   0  0  0  0  0  0  0  0  0  0  0  0
    0.8940   30.6500    7.2310 C   0  0  0  0  0  0  0  0  0  0  0  0
   -0.2070   31.3070    7.7310 N   0  0  0  0  0  0  0  0  0  0  0  0
   -0.3920   32.2610    7.4590 H   0  0  0  0  0  0  0  0  0  0  0  0
   -0.9060   30.4810    8.5720 C   0  0  0  0  0  0  0  0  0  0  0  0
   -2.1470   30.7090    9.3530 C   0  0  0  0  0  0  0  0  0  0  0  0
   -2.6690   31.6480    9.2730 H   0  0  0  0  0  0  0  0  0  0  0  0
   -2.6440   29.6140   10.2410 C   0  0  0  0  0  0  0  0  0  0  0  0
   -3.5740   29.7310   10.7710 H   0  0  0  0  0  0  0  0  0  0  0  0
   -1.8720   28.3330   10.4190 C   0  0  0  0  0  0  0  0  0  0  0  0
   -2.3390   27.2870   11.3190 C   0  0  0  0  0  0  0  0  0  0  0  0
   -3.6640   27.0700   11.6020 O   0  0  0  0  0  0  0  0  0  0  0  0
   -3.6980   25.8860   12.2920 C   0  0  0  0  0  0  0  0  0  0  0  0
   -4.6410   25.4060   12.4920 H   0  0  0  0  0  0  0  0  0  0  0  0
   -2.4580   25.4750   12.6390 N   0  0  0  0  0  0  0  0  0  0  0  0
   -1.5790   26.3090   12.0430 C   0  0  0  0  0  0  0  0  0  0  0  0
   -0.5030   26.3460   12.0310 H   0  0  0  0  0  0  0  0  0  0  0  0
   -0.6350   28.1620    9.5930 C   0  0  0  0  0  0  0  0  0  0  0  0
   -0.0480   27.2630    9.6810 H   0  0  0  0  0  0  0  0  0  0  0  0
   -0.1990   29.2140    8.6490 C   0  0  0  0  0  0  0  0  0  0  0  0
    0.9040   29.2330    7.7110 C   0  0  0  0  0  0  0  0  0  0  0  0
    1.7070   28.2080    7.3420 C   0  0  0  0  0  0  0  0  0  0  0  0
    1.4380   27.1960    7.5940 H   0  0  0  0  0  0  0  0  0  0  0  0
    2.9880   28.1740    6.6020 N   0  0  0  0  0  0  0  0  0  0  0  0
    3.3200   29.0020    6.1300 H   0  0  0  0  0  0  0  0  0  0  0  0
    3.8180   27.0840    6.4800 C   0  0  0  0  0  0  0  0  0  0  0  0
    4.1880   26.1870    7.6250 C   0  0  0  0  0  0  0  0  0  0  0  0
    3.8020   26.3850    8.6110 H   0  0  0  0  0  0  0  0  0  0  0  0
    5.0730   25.0460    7.3940 C   0  0  0  0  0  0  0  0  0  0  0  0
    5.5100   24.0520    8.3980 C   0  0  0  0  0  0  0  0  0  0  0  0
    5.6330   24.5280    9.3360 H   0  0  0  0  0  0  0  0  0  0  0  0
    4.7790   23.2900    8.4820 H   0  0  0  0  0  0  0  0  0  0  0  0
    7.0630   23.3460    7.8690 S   0  0  0  0  0  0  0  0  0  0  0  0
    7.1320   21.9370    8.1530 O   0  0  0  0  0  0  0  0  0  0  0  0
    8.0920   24.2360    8.3280 O   0  0  0  0  0  0  0  0  0  0  0  0
    6.6710   23.7040    6.1380 C   0  0  0  0  0  0  0  0  0  0  0  0
    7.5530   23.9950    5.6290 H   0  0  0  0  0  0  0  0  0  0  0  0
    6.2690   22.8380    5.6810 H   0  0  0  0  0  0  0  0  0  0  0  0
    5.6710   24.8110    6.0730 C   0  0  0  0  0  0  0  0  0  0  0  0
    5.2990   25.6550    4.9130 C   0  0  0  0  0  0  0  0  0  0  0  0
    5.6920   25.4300    3.9360 H   0  0  0  0  0  0  0  0  0  0  0  0
    4.3840   26.8020    5.1300 C   0  0  0  0  0  0  0  0  0  0  0  0
    4.1300   27.4350    4.2970 H   0  0  0  0  0  0  0  0  0  0  0  0
  1  2  2  0  0  0  0
  2  3  1  0  0  0  0
  2 21  1  0  0  0  0
  3  4  1  0  0  0  0
  3  5  1  0  0  0  0
  5  6  1  0  0  0  0
  5 20  2  0  0  0  0
  6  7  1  0  0  0  0
  6  8  2  0  0  0  0
  8  9  1  0  0  0  0
  8 10  1  0  0  0  0
 10 11  1  0  0  0  0
 10 18  2  0  0  0  0
 11 12  1  0  0  0  0
 11 16  2  0  0  0  0
 12 13  1  0  0  0  0
 13 14  1  0  0  0  0
 13 15  2  0  0  0  0
 15 16  1  0  0  0  0
 16 17  1  0  0  0  0
 18 19  1  0  0  0  0
 18 20  1  0  0  0  0
 20 21  1  0  0  0  0
 21 22  2  0  0  0  0
 22 23  1  0  0  0  0
 22 24  1  0  0  0  0
 24 25  1  0  0  0  0
 24 26  1  0  0  0  0
 26 27  1  0  0  0  0
 26 42  2  0  0  0  0
 27 28  1  0  0  0  0
 27 29  2  0  0  0  0
 29 30  1  0  0  0  0
 29 39  1  0  0  0  0
 30 31  1  0  0  0  0
 30 32  1  0  0  0  0
 30 33  1  0  0  0  0
 33 34  2  0  0  0  0
 33 35  2  0  0  0  0
 33 36  1  0  0  0  0
 36 37  1  0  0  0  0
 36 38  1  0  0  0  0
 36 39  1  0  0  0  0
 39 40  2  0  0  0  0
 40 41  1  0  0  0  0
 40 42  1  0  0  0  0
 42 43  1  0  0  0  0
M  END
$$$$
1P2A
  MOE2007           3D
1P2A
 39 42  0  0  0  0  0  0  0  0999 V2000
   -0.9540   25.1850   13.3190 N   0  3  0  0  0  0  0  0  0  0  0  0
   -1.8160   25.3600   13.8130 H   0  0  0  0  0  0  0  0  0  0  0  0
   -0.5940   26.0540   12.9530 H   0  0  0  0  0  0  0  0  0  0  0  0
   -0.2800   24.7810   13.9520 H   0  0  0  0  0  0  0  0  0  0  0  0
   -1.2040   24.2540   12.2120 C   0  0  0  0  0  0  0  0  0  0  0  0
   -0.6170   23.3830   12.3440 H   0  0  0  0  0  0  0  0  0  0  0  0
   -2.2300   23.9900   12.1980 H   0  0  0  0  0  0  0  0  0  0  0  0
   -0.8470   24.8680   10.8290 C   0  0  0  0  0  0  0  0  0  0  0  0
    0.2020   24.8380   10.6900 H   0  0  0  0  0  0  0  0  0  0  0  0
   -1.3210   24.3120   10.0630 H   0  0  0  0  0  0  0  0  0  0  0  0
   -1.2500   26.3000   10.6070 N   0  0  0  0  0  0  0  0  0  0  0  0
   -2.0470   26.6810   11.0950 H   0  0  0  0  0  0  0  0  0  0  0  0
   -0.6140   27.2730    9.7340 C   0  0  0  0  0  0  0  0  0  0  0  0
    0.6480   26.8880    9.1570 C   0  0  0  0  0  0  0  0  0  0  0  0
    1.0690   25.9220    9.3780 H   0  0  0  0  0  0  0  0  0  0  0  0
    1.4740   27.7250    8.2420 C   0  0  0  0  0  0  0  0  0  0  0  0
    2.7340   27.1970    7.7550 C   0  0  0  0  0  0  0  0  0  0  0  0
    3.3260   25.9280    8.0370 C   0  0  0  0  0  0  0  0  0  0  0  0
    2.8200   25.2290    8.6820 H   0  0  0  0  0  0  0  0  0  0  0  0
    4.5540   25.8380    7.3590 C   0  0  0  0  0  0  0  0  0  0  0  0
    5.1540   24.9480    7.4480 H   0  0  0  0  0  0  0  0  0  0  0  0
    4.7200   27.0200    6.6730 C   0  0  0  0  0  0  0  0  0  0  0  0
    5.6030   27.1770    6.0760 H   0  0  0  0  0  0  0  0  0  0  0  0
    3.6140   27.8060    6.9320 N   0  0  0  0  0  0  0  0  0  0  0  0
    3.4200   28.7330    6.5830 H   0  0  0  0  0  0  0  0  0  0  0  0
    0.8850   29.0310    7.9510 C   0  0  0  0  0  0  0  0  0  0  0  0
    1.3360   30.1930    7.0930 C   0  0  0  0  0  0  0  0  0  0  0  0
    2.3410   30.2990    6.4170 O   0  0  0  0  0  0  0  0  0  0  0  0
    0.3430   31.1940    7.2150 N   0  0  0  0  0  0  0  0  0  0  0  0
    0.4430   32.0670    6.7200 H   0  0  0  0  0  0  0  0  0  0  0  0
   -0.6600   30.7150    8.0770 C   0  0  0  0  0  0  0  0  0  0  0  0
   -1.8440   31.2920    8.5360 C   0  0  0  0  0  0  0  0  0  0  0  0
   -2.1150   32.2860    8.2230 H   0  0  0  0  0  0  0  0  0  0  0  0
   -2.6870   30.5450    9.4250 C   0  0  0  0  0  0  0  0  0  0  0  0
   -3.6050   30.9770    9.7870 H   0  0  0  0  0  0  0  0  0  0  0  0
   -2.3780   29.2380    9.8680 C   0  0  0  0  0  0  0  0  0  0  0  0
   -3.2420   28.6280   10.7020 F   0  0  0  0  0  0  0  0  0  0  0  0
   -1.1440   28.6000    9.4120 C   0  0  0  0  0  0  0  0  0  0  0  0
   -0.3290   29.3890    8.5200 C   0  0  0  0  0  0  0  0  0  0  0  0
  1  2  1  0  0  0  0
  1  3  1  0  0  0  0
  1  4  1  0  0  0  0
  1  5  1  0  0  0  0
  5  6  1  0  0  0  0
  5  7  1  0  0  0  0
  5  8  1  0  0  0  0
  8  9  1  0  0  0  0
  8 10  1  0  0  0  0
  8 11  1  0  0  0  0
 11 12  1  0  0  0  0
 11 13  1  0  0  0  0
 13 14  1  0  0  0  0
 13 38  2  0  0  0  0
 14 15  1  0  0  0  0
 14 16  2  0  0  0  0
 16 17  1  0  0  0  0
 16 26  1  0  0  0  0
 17 18  2  0  0  0  0
 17 24  1  0  0  0  0
 18 19  1  0  0  0  0
 18 20  1  0  0  0  0
 20 21  1  0  0  0  0
 20 22  2  0  0  0  0
 22 23  1  0  0  0  0
 22 24  1  0  0  0  0
 24 25  1  0  0  0  0
 26 27  1  0  0  0  0
 26 39  2  0  0  0  0
 27 28  2  0  0  0  0
 27 29  1  0  0  0  0
 29 30  1  0  0  0  0
 29 31  1  0  0  0  0
 31 32  2  0  0  0  0
 31 39  1  0  0  0  0
 32 33  1  0  0  0  0
 32 34  1  0  0  0  0
 34 35  1  0  0  0  0
 34 36  2  0  0  0  0
 36 37  1  0  0  0  0
 36 38  1  0  0  0  0
 38 39  1  0  0  0  0
M  CHG  1   1   1
M  END
$$$$
1PF8
  MOE2007           3D
1PF8
 29 31  0  0  0  0  0  0  0  0999 V2000
    4.3440   28.5240    6.3040 N   0  0  0  0  0  0  0  0  0  0  0  0
    5.5290   27.9060    5.7870 C   0  0  0  0  0  0  0  0  0  0  0  0
    6.1550   28.4390    5.0920 H   0  0  0  0  0  0  0  0  0  0  0  0
    5.6150   26.5090    6.4130 N   0  0  0  0  0  0  0  0  0  0  0  0
    6.3140   25.8550    6.0940 H   0  0  0  0  0  0  0  0  0  0  0  0
    4.5060   26.4420    7.4770 C   0  0  0  0  0  0  0  0  0  0  0  0
    4.4870   25.6300    8.1840 H   0  0  0  0  0  0  0  0  0  0  0  0
    3.6260   27.6650    7.2380 C   0  0  0  0  0  0  0  0  0  0  0  0
    2.6750   27.8840    7.8520 C   0  0  0  0  0  0  0  0  0  0  0  0
    2.3700   27.2080    8.6330 H   0  0  0  0  0  0  0  0  0  0  0  0
    1.8770   29.0470    7.6010 C   0  0  0  0  0  0  0  0  0  0  0  0
    2.0330   30.1800    6.7320 C   0  0  0  0  0  0  0  0  0  0  0  0
    2.9500   30.3630    5.9670 O   0  0  0  0  0  0  0  0  0  0  0  0
    1.0720   31.0690    6.8160 N   0  0  0  0  0  0  0  0  0  0  0  0
    1.0960   31.8940    6.2360 H   0  0  0  0  0  0  0  0  0  0  0  0
    0.2020   30.5750    7.7770 C   0  0  0  0  0  0  0  0  0  0  0  0
   -1.0230   31.1370    8.2850 C   0  0  0  0  0  0  0  0  0  0  0  0
   -1.3840   32.0770    7.9020 H   0  0  0  0  0  0  0  0  0  0  0  0
   -1.7360   30.4380    9.2870 C   0  0  0  0  0  0  0  0  0  0  0  0
   -2.6540   30.8440    9.6770 H   0  0  0  0  0  0  0  0  0  0  0  0
   -1.3050   29.2340    9.8030 C   0  0  0  0  0  0  0  0  0  0  0  0
   -1.9410   28.5990   10.7090 O   0  0  0  0  0  0  0  0  0  0  0  0
   -1.5890   27.5290   11.1930 C   0  0  0  0  0  0  0  0  0  0  0  0
   -1.4450   27.6440   12.2360 H   0  0  0  0  0  0  0  0  0  0  0  0
   -0.6820   27.2200   10.7430 H   0  0  0  0  0  0  0  0  0  0  0  0
   -2.3360   26.8000   11.0180 H   0  0  0  0  0  0  0  0  0  0  0  0
    0.0440   28.5810    9.2640 C   0  0  0  0  0  0  0  0  0  0  0  0
    0.3840   27.6400    9.6640 H   0  0  0  0  0  0  0  0  0  0  0  0
    0.6610   29.3540    8.2780 C   0  0  0  0  0  0  0  0  0  0  0  0
  1  2  2  0  0  0  0
  1  8  1  0  0  0  0
  2  3  1  0  0  0  0
  2  4  1  0  0  0  0
  4  5  1  0  0  0  0
  4  6  1  0  0  0  0
  6  7  1  0  0  0  0
  6  8  2  0  0  0  0
  8  9  1  0  0  0  0
  9 10  1  0  0  0  0
  9 11  2  0  0  0  0
 11 12  1  0  0  0  0
 11 29  1  0  0  0  0
 12 13  2  0  0  0  0
 12 14  1  0  0  0  0
 14 15  1  0  0  0  0
 14 16  1  0  0  0  0
 16 17  1  0  0  0  0
 16 29  2  0  0  0  0
 17 18  1  0  0  0  0
 17 19  2  0  0  0  0
 19 20  1  0  0  0  0
 19 21  1  0  0  0  0
 21 22  1  0  0  0  0
 21 27  2  0  0  0  0
 22 23  1  0  0  0  0
 23 24  1  0  0  0  0
 23 25  1  0  0  0  0
 23 26  1  0  0  0  0
 27 28  1  0  0  0  0
 27 29  1  0  0  0  0
M  END
$$$$
2BHE
  MOE2007           3D
2BHE
 30 33  0  0  0  0  0  0  0  0999 V2000
    2.8750   26.0630    7.8420 C   0  0  0  0  0  0  0  0  0  0  0  0
    1.6390   26.7570    8.2680 C   0  0  0  0  0  0  0  0  0  0  0  0
    3.6040   26.9810    7.1020 C   0  0  0  0  0  0  0  0  0  0  0  0
    2.9580   28.2210    6.9870 N   0  0  0  0  0  0  0  0  0  0  0  0
    3.3880   28.9670    6.4610 H   0  0  0  0  0  0  0  0  0  0  0  0
    4.8740   26.6390    6.5250 C   0  0  0  0  0  0  0  0  0  0  0  0
    5.4260   27.3740    5.9650 H   0  0  0  0  0  0  0  0  0  0  0  0
    5.3100   25.3150    6.7490 C   0  0  0  0  0  0  0  0  0  0  0  0
    6.2460   24.9790    6.3350 H   0  0  0  0  0  0  0  0  0  0  0  0
    4.5440   24.4030    7.5120 C   0  0  0  0  0  0  0  0  0  0  0  0
    4.9110   23.4060    7.6860 H   0  0  0  0  0  0  0  0  0  0  0  0
    3.2910   24.7640    8.0630 C   0  0  0  0  0  0  0  0  0  0  0  0
    2.6710   24.0890    8.6280 H   0  0  0  0  0  0  0  0  0  0  0  0
    1.7420   28.1640    7.6880 C   0  0  0  0  0  0  0  0  0  0  0  0
    0.9100   29.1740    7.7620 C   0  0  0  0  0  0  0  0  0  0  0  0
    1.1520   30.4600    7.0630 C   0  0  0  0  0  0  0  0  0  0  0  0
    0.1540   31.3360    7.4340 N   0  0  0  0  0  0  0  0  0  0  0  0
    0.2070   32.3060    7.1610 H   0  0  0  0  0  0  0  0  0  0  0  0
   -0.8300   30.6650    8.1820 C   0  0  0  0  0  0  0  0  0  0  0  0
   -0.4200   29.3410    8.4500 C   0  0  0  0  0  0  0  0  0  0  0  0
   -1.9620   31.2140    8.6760 C   0  0  0  0  0  0  0  0  0  0  0  0
   -2.1930   32.2460    8.4720 H   0  0  0  0  0  0  0  0  0  0  0  0
   -2.8060   30.4020    9.4490 C   0  0  0  0  0  0  0  0  0  0  0  0
   -3.7200   30.8040    9.8510 H   0  0  0  0  0  0  0  0  0  0  0  0
   -2.4570   29.0610    9.6990 C   0  0  0  0  0  0  0  0  0  0  0  0
   -1.2440   28.5040    9.2280 C   0  0  0  0  0  0  0  0  0  0  0  0
   -0.9390   27.4930    9.4380 H   0  0  0  0  0  0  0  0  0  0  0  0
    2.1990   30.7870    6.4580 O   0  0  0  0  0  0  0  0  0  0  0  0
    0.7340   26.3190    8.9470 O   0  0  0  0  0  0  0  0  0  0  0  0
   -3.5970   28.0100   10.6920 Br  0  0  0  0  0  0  0  0  0  0  0  0
  1  2  1  0  0  0  0
  1  3  1  0  0  0  0
  1 12  2  0  0  0  0
  2 14  1  0  0  0  0
  2 29  2  0  0  0  0
  3  4  1  0  0  0  0
  3  6  2  0  0  0  0
  4  5  1  0  0  0  0
  4 14  1  0  0  0  0
  6  7  1  0  0  0  0
  6  8  1  0  0  0  0
  8  9  1  0  0  0  0
  8 10  2  0  0  0  0
 10 11  1  0  0  0  0
 10 12  1  0  0  0  0
 12 13  1  0  0  0  0
 14 15  2  0  0  0  0
 15 16  1  0  0  0  0
 15 20  1  0  0  0  0
 16 17  1  0  0  0  0
 16 28  2  0  0  0  0
 17 18  1  0  0  0  0
 17 19  1  0  0  0  0
 19 20  1  0  0  0  0
 19 21  2  0  0  0  0
 20 26  2  0  0  0  0
 21 22  1  0  0  0  0
 21 23  1  0  0  0  0
 23 24  1  0  0  0  0
 23 25  2  0  0  0  0
 25 26  1  0  0  0  0
 25 30  1  0  0  0  0
 26 27  1  0  0  0  0
M  END
$$$$
2BHH
  MOE2007           3D
2BHH
 54 58  0  0  1  0  0  0  0  0999 V2000
    3.9750   24.8620    8.3250 C   0  0  0  0  0  0  0  0  0  0  0  0
    3.6280   24.2960    9.1730 H   0  0  0  0  0  0  0  0  0  0  0  0
    5.2410   24.5250    7.6950 C   0  0  0  0  0  0  0  0  0  0  0  0
    5.8960   23.8030    8.1540 H   0  0  0  0  0  0  0  0  0  0  0  0
    5.6600   25.1390    6.4470 C   0  0  0  0  0  0  0  0  0  0  0  0
    6.5060   24.7440    5.9100 H   0  0  0  0  0  0  0  0  0  0  0  0
    4.9520   26.2880    5.9050 C   0  0  0  0  0  0  0  0  0  0  0  0
    5.2990   26.7560    4.9990 H   0  0  0  0  0  0  0  0  0  0  0  0
    3.7900   26.7380    6.6480 C   0  0  0  0  0  0  0  0  0  0  0  0
    3.2480   25.9720    7.7470 C   0  0  0  0  0  0  0  0  0  0  0  0
    1.9560   26.4990    8.1360 C   0  0  3  0  0  0  0  0  0  0  0  0
    1.9590   26.7150    9.6250 C   0  0  0  0  0  0  0  0  0  0  0  0
    2.8960   26.4210   10.0220 H   0  0  0  0  0  0  0  0  0  0  0  0
    1.1910   26.1360   10.0670 H   0  0  0  0  0  0  0  0  0  0  0  0
    1.7930   27.7400    9.8330 H   0  0  0  0  0  0  0  0  0  0  0  0
    0.9790   25.6390    7.8360 O   0  0  0  0  0  0  0  0  0  0  0  0
    0.4330   25.4860    8.6190 H   0  0  0  0  0  0  0  0  0  0  0  0
    1.9370   27.7200    7.3430 C   0  0  0  0  0  0  0  0  0  0  0  0
    3.0070   27.8940    6.4340 N   0  0  0  0  0  0  0  0  0  0  0  0
    3.2950   28.5790    5.7520 H   0  0  0  0  0  0  0  0  0  0  0  0
    0.9730   28.7930    7.4770 C   0  0  0  0  0  0  0  0  0  0  0  0
    1.1400   30.2280    7.0330 C   0  0  0  0  0  0  0  0  0  0  0  0
    2.0710   30.5500    6.3010 O   0  0  0  0  0  0  0  0  0  0  0  0
    0.2870   31.1390    7.4880 N   0  0  0  0  0  0  0  0  0  0  0  0
    0.3680   32.1000    7.1900 H   0  0  0  0  0  0  0  0  0  0  0  0
   -0.5250   30.3410    8.3270 C   0  0  0  0  0  0  0  0  0  0  0  0
   -0.1830   28.9300    8.3360 C   0  0  0  0  0  0  0  0  0  0  0  0
   -0.8350   27.9110    9.1440 C   0  0  0  0  0  0  0  0  0  0  0  0
   -0.6190   26.8700    8.9740 H   0  0  0  0  0  0  0  0  0  0  0  0
   -1.7450   28.4530   10.1330 C   0  0  0  0  0  0  0  0  0  0  0  0
   -2.1920   29.8380   10.0890 C   0  0  0  0  0  0  0  0  0  0  0  0
   -2.9920   30.1660   10.7320 H   0  0  0  0  0  0  0  0  0  0  0  0
   -1.5880   30.8130    9.1930 C   0  0  0  0  0  0  0  0  0  0  0  0
   -1.8970   31.8440    9.1540 H   0  0  0  0  0  0  0  0  0  0  0  0
   -2.3590   27.5620   11.5750 S   0  0  0  0  0  0  0  0  0  0  0  0
   -1.3030   28.0690   12.8720 O   0  0  0  0  0  0  0  0  0  0  0  0
   -3.9390   28.2560   11.4770 O   0  0  0  0  0  0  0  0  0  0  0  0
   -2.3530   25.7960   11.7720 N   0  0  0  0  0  0  0  0  0  0  0  0
   -2.1630   25.1460   13.0890 C   0  0  0  0  0  0  0  0  0  0  0  0
   -2.1030   25.8870   13.8430 H   0  0  0  0  0  0  0  0  0  0  0  0
   -2.9820   24.5050   13.2880 H   0  0  0  0  0  0  0  0  0  0  0  0
   -0.8850   24.3150   13.1340 C   0  0  0  0  0  0  0  0  0  0  0  0
   -0.0450   24.9600   13.1450 H   0  0  0  0  0  0  0  0  0  0  0  0
   -0.8830   23.7170   14.0080 H   0  0  0  0  0  0  0  0  0  0  0  0
   -0.7360   23.3790   11.9310 C   0  0  0  0  0  0  0  0  0  0  0  0
   -1.5720   22.7300   11.8830 H   0  0  0  0  0  0  0  0  0  0  0  0
    0.4290   22.5460   11.9520 O   0  0  0  0  0  0  0  0  0  0  0  0
    0.9270   22.7080   12.7650 H   0  0  0  0  0  0  0  0  0  0  0  0
   -0.9480   24.1300   10.6180 C   0  0  0  0  0  0  0  0  0  0  0  0
   -0.1510   24.8100   10.4680 H   0  0  0  0  0  0  0  0  0  0  0  0
   -0.9780   23.4380    9.8170 H   0  0  0  0  0  0  0  0  0  0  0  0
   -2.2430   24.9200   10.5980 C   0  0  0  0  0  0  0  0  0  0  0  0
   -3.0530   24.2380   10.5890 H   0  0  0  0  0  0  0  0  0  0  0  0
   -2.2660   25.5060    9.7170 H   0  0  0  0  0  0  0  0  0  0  0  0
  1  2  1  0  0  0  0
  1  3  1  0  0  0  0
  1 10  2  0  0  0  0
  3  4  1  0  0  0  0
  3  5  2  0  0  0  0
  5  6  1  0  0  0  0
  5  7  1  0  0  0  0
  7  8  1  0  0  0  0
  7  9  2  0  0  0  0
  9 10  1  0  0  0  0
  9 19  1  0  0  0  0
 10 11  1  0  0  0  0
 11 12  1  0  0  0  0
 11 16  1  0  0  0  0
 11 18  1  0  0  0  0
 12 13  1  0  0  0  0
 12 14  1  0  0  0  0
 12 15  1  0  0  0  0
 16 17  1  0  0  0  0
 18 19  1  0  0  0  0
 18 21  2  0  0  0  0
 19 20  1  0  0  0  0
 21 22  1  0  0  0  0
 21 27  1  0  0  0  0
 22 23  2  0  0  0  0
 22 24  1  0  0  0  0
 24 25  1  0  0  0  0
 24 26  1  0  0  0  0
 26 27  1  0  0  0  0
 26 33  2  0  0  0  0
 27 28  2  0  0  0  0
 28 29  1  0  0  0  0
 28 30  1  0  0  0  0
 30 31  2  0  0  0  0
 30 35  1  0  0  0  0
 31 32  1  0  0  0  0
 31 33  1  0  0  0  0
 33 34  1  0  0  0  0
 35 36  2  0  0  0  0
 35 37  2  0  0  0  0
 35 38  1  0  0  0  0
 38 39  1  0  0  0  0
 38 52  1  0  0  0  0
 39 40  1  0  0  0  0
 39 41  1  0  0  0  0
 39 42  1  0  0  0  0
 42 43  1  0  0  0  0
 42 44  1  0  0  0  0
 42 45  1  0  0  0  0
 45 46  1  0  0  0  0
 45 47  1  0  0  0  0
 45 49  1  0  0  0  0
 47 48  1  0  0  0  0
 49 50  1  0  0  0  0
 49 51  1  0  0  0  0
 49 52  1  0  0  0  0
 52 53  1  0  0  0  0
 52 54  1  0  0  0  0
M  END
$$$$
